   ---   236   cards of disk file read into card cache cells  1   onward.
 Comment card is ignored.      |C   LBUS  LBRNCH   LDATA   LEXCT   LYMAT  LSWTCH
 Limit CIDEAL cards =   200    |CARDS        200 { Limit of CIDEAL will be 2 mor
 1st card (Lists  1-10).       |    6000   10000  192000     900  420000    120
 Comment card is ignored.      |C LSMOUT  LSIZ12  LSIZ13  LBSTAC  LCTACS  LIMASS
 2nd card (Lists 11-20).       |     720    2000   72800     510   90000     80
 Comment card is ignored.      |C    LFD   LHIST  LSIZ23   NCOMP  LSPCUM  LSIZ26
 3rd card (Lists 21-30).       |    3000   15000  192000     120   45000  26000
 4th card (Lists 31-32).       |     200     300     { Optional card for Lists
 Comment card is ignored.      |C  LWORK  LMARTI
 Supplemental offsets.         |  840000     742
 <===> Done with  "/"-card sorting by data class.    Remember that the source file appears different from interpreted input data.
Alternative Transients Program (ATP),  GNU Linux or DOS.  All rights reserved by Can/Am user group of Portland, Oregon, USA.
 Date (dd-mth-yy) and time of day (hh.mm.ss) = 28-Feb-22  19:44:44   Name of disk plot file is  draw6.3\bernal\energizacion2969.pl4
Consult the 860-page ATP Rule Book of the Can/Am EMTP User Group in Portland,  Oregon, USA.  Source code date is 12 August 2008.
Total size of LABCOM tables = 10913436 INTEGER words.  31 VARDIM  List Sizes follow:  6002  10K  192K  900  420K  1200  15K
  120K  2250  3800  720  2K  72800  510  90K  800  90  254  120K  100K  3K  15K  192K  120  45K  260K  600  210K  1100  60  200
--------------------------------------------------+--------------------------------------------------------------------------------
Descriptive interpretation of input data cards.   |  Input data card images are shown below, all 80 columns, character by character
                                                  0         1         2         3         4         5         6         7         8
                                                  012345678901234567890123456789012345678901234567890123456789012345678901234567890
--------------------------------------------------+--------------------------------------------------------------------------------
Comment card.   NUMDCD = 1.                       |C data:C:\ATP\ATPDRAW6.3\BERNAL\ENERGIZACION2969.ATP
Marker card preceding new EMTP data case.         |BEGIN NEW DATA CASE
Comment card.   NUMDCD = 3.                       |C --------------------------------------------------------
Comment card.   NUMDCD = 4.                       |C Generated by ATPDRAW  febrero, lunes 28, 2022
Comment card.   NUMDCD = 5.                       |C A Bonneville Power Administration program
Comment card.   NUMDCD = 6.                       |C by H. K. Høidalen at SEfAS/NTNU - NORWAY 1994-2016
Comment card.   NUMDCD = 7.                       |C --------------------------------------------------------
Comment card.   NUMDCD = 8.                       |C  dT  >< Tmax >< Xopt >< Copt ><Epsiln>
Misc. data.     1.000E-06   1.200E-01   5.000E+01 |   1.E-6     .12     50.
Misc. data.    500    1  0  1  1  0  0  0  0  0   |     500       1       0       1       1       0       0       0       0
  ///  Warning.  Nonzero XOPT or COPT differs from the power frequency of  6.00000000E+01  Hz.   Did the user really want this?
No TACS data,  but MODELS data begins (next).     |MODELS
      Another ordinary MODELS data card.          |OUTPUT
      Another ordinary MODELS data card.          |  AnVol
      Another ordinary MODELS data card.          |  LONG
      Another ordinary MODELS data card.          |  R0F
      Another ordinary MODELS data card.          |  R1F
      Another ordinary MODELS data card.          |  X0F
      Another ordinary MODELS data card.          |  X1F
      Another ordinary MODELS data card.          |  RDIVX
      Another ordinary MODELS data card.          |  RINSER
      Another ordinary MODELS data card.          |  CLOSE1
      Another ordinary MODELS data card.          |  RPpos
      Another ordinary MODELS data card.          |  RPcero
      Another ordinary MODELS data card.          |  LPpos
      Another ordinary MODELS data card.          |  LPcero
      Another ordinary MODELS data card.          |  CPpos
      Another ordinary MODELS data card.          |  CPcero
      Another ordinary MODELS data card.          |  Xp
      Another ordinary MODELS data card.          |  CR
      Another ordinary MODELS data card.          |  SIMET
      Another ordinary MODELS data card.          |  ENC1
      Another ordinary MODELS data card.          |  ENC2
      Another ordinary MODELS data card.          |  ENC1AS
      Another ordinary MODELS data card.          |  ENC2AS
      Another ordinary MODELS data card.          |MODEL DEFAULT
      Another ordinary MODELS data card.          |DATA AnVol,LONG,R0F,R1F,X0F,X1F,RDIVX,RINSER,CLOSE1,RPpos,RPcero,LPpos,LPcero
      Another ordinary MODELS data card.          |OUTPUT o1,o2,o3, o4, o5, o6, o7, o8, o9, o10, o11, o12, o13
      Another ordinary MODELS data card.          |VAR o1,o2,o3, o4, o5, o6, o7, o8, o9, o10, o11, o12, o13
      Another ordinary MODELS data card.          |INIT
      Another ordinary MODELS data card.          |  o1:=AnVol
      Another ordinary MODELS data card.          |  o2:=LONG
      Another ordinary MODELS data card.          |  o3:=R0F
      Another ordinary MODELS data card.          |  o4:=R1F
      Another ordinary MODELS data card.          |  o5:=X0F
      Another ordinary MODELS data card.          |  O6:=X1F
      Another ordinary MODELS data card.          |  o7:=RDIVX
      Another ordinary MODELS data card.          |  o8:=RINSER
      Another ordinary MODELS data card.          |  o9:=CLOSE1
      Another ordinary MODELS data card.          |  o10:=RPpos
      Another ordinary MODELS data card.          |  o11:=RPcero
      Another ordinary MODELS data card.          |  o12:=LPpos
      Another ordinary MODELS data card.          |  o13:=LPcero
      Another ordinary MODELS data card.          |
      Another ordinary MODELS data card.          |ENDINIT
      Another ordinary MODELS data card.          |EXEC
      Another ordinary MODELS data card.          |ENDEXEC
      Another ordinary MODELS data card.          |ENDMODEL
      Another ordinary MODELS data card.          |MODEL DEFAULT1
      Another ordinary MODELS data card.          |DATA CPpos,CPcero,Xp,CR,SIMET,ENC1,ENC2,ENC1AS,ENC2AS
      Another ordinary MODELS data card.          |OUTPUT o1, o2, o3, o4, o5, o6, o7, o8, o9
      Another ordinary MODELS data card.          |VAR o1, o2, o3, o4, o5, o6, o7, o8, o9
      Another ordinary MODELS data card.          |INIT
      Another ordinary MODELS data card.          |  o1:=CPpos
      Another ordinary MODELS data card.          |  o2:=CPcero
      Another ordinary MODELS data card.          |  o3:=Xp
      Another ordinary MODELS data card.          |  o4:=CR
      Another ordinary MODELS data card.          |  o5:=SIMET
      Another ordinary MODELS data card.          |  o6:=ENC1
      Another ordinary MODELS data card.          |  o7:=ENC2
      Another ordinary MODELS data card.          |  o8:=ENC1AS
      Another ordinary MODELS data card.          |  o9:=ENC2AS
      Another ordinary MODELS data card.          |
      Another ordinary MODELS data card.          |ENDINIT
      Another ordinary MODELS data card.          |EXEC
      Another ordinary MODELS data card.          |ENDEXEC
      Another ordinary MODELS data card.          |ENDMODEL
      Another ordinary MODELS data card.          |USE DEFAULT AS DEFAULT
      Another ordinary MODELS data card.          |DATA
      Another ordinary MODELS data card.          |  AnVol:=      0.0
      Another ordinary MODELS data card.          |  LONG:=  136.679
      Another ordinary MODELS data card.          |  R0F:= 1.787179
      Another ordinary MODELS data card.          |  R1F:= 1.496255
      Another ordinary MODELS data card.          |  X0F:= 15.19607
      Another ordinary MODELS data card.          |  X1F:= 12.72239
      Another ordinary MODELS data card.          |  RDIVX:= 0.117608
      Another ordinary MODELS data card.          |  RINSER:=    1.E-6
      Another ordinary MODELS data card.          |  CLOSE1:= 0.050484
      Another ordinary MODELS data card.          |  RPpos:= 0.022852
      Another ordinary MODELS data card.          |  RPcero:= 0.356212
      Another ordinary MODELS data card.          |  LPpos:= 0.409118
      Another ordinary MODELS data card.          |  LPcero:= 0.991237
      Another ordinary MODELS data card.          |OUTPUT
      Another ordinary MODELS data card.          |  AnVol:=o1
      Another ordinary MODELS data card.          |  LONG:=o2
      Another ordinary MODELS data card.          |  R0F:=o3
      Another ordinary MODELS data card.          |  R1F:=o4
      Another ordinary MODELS data card.          |  X0F:=o5
      Another ordinary MODELS data card.          |  X1F:=o6
      Another ordinary MODELS data card.          |  RDIVX:=o7
      Another ordinary MODELS data card.          |  RINSER:=o8
      Another ordinary MODELS data card.          |  CLOSE1:=o9
      Another ordinary MODELS data card.          |  RPpos:=o10
      Another ordinary MODELS data card.          |  RPcero:=o11
      Another ordinary MODELS data card.          |  LPpos:=o12
      Another ordinary MODELS data card.          |  LPcero:=o13
      Another ordinary MODELS data card.          |ENDUSE
      Another ordinary MODELS data card.          |USE DEFAULT1 AS DEF
      Another ordinary MODELS data card.          |DATA
      Another ordinary MODELS data card.          |  CPpos:= 0.016352
      Another ordinary MODELS data card.          |  CPcero:= 0.008603
      Another ordinary MODELS data card.          |  Xp:= 2191.085
      Another ordinary MODELS data card.          |  CR:= 43.82169
      Another ordinary MODELS data card.          |  SIMET:=       1.
      Another ordinary MODELS data card.          |  ENC1:=       1.
      Another ordinary MODELS data card.          |  ENC2:=      0.0
      Another ordinary MODELS data card.          |  ENC1AS:=      0.0
      Another ordinary MODELS data card.          |  ENC2AS:=      0.0
      Another ordinary MODELS data card.          |OUTPUT
      Another ordinary MODELS data card.          |  CPpos:=o1
      Another ordinary MODELS data card.          |  CPcero:=o2
      Another ordinary MODELS data card.          |  Xp:=o3
      Another ordinary MODELS data card.          |  CR:=o4
      Another ordinary MODELS data card.          |  SIMET:=o5
      Another ordinary MODELS data card.          |  ENC1:=o6
      Another ordinary MODELS data card.          |  ENC2:=o7
      Another ordinary MODELS data card.          |  ENC1AS:=o8
      Another ordinary MODELS data card.          |  ENC2AS:=o9
      Another ordinary MODELS data card.          |ENDUSE
      Another ordinary MODELS data card.          |RECORD
      Another ordinary MODELS data card.          |  DEFAULT.o1 AS AnVOL
      Another ordinary MODELS data card.          |  DEFAULT.o2 AS LONG
      Another ordinary MODELS data card.          |  DEFAULT.o3 AS R0F
      Another ordinary MODELS data card.          |  DEFAULT.o4 AS R1F
      Another ordinary MODELS data card.          |  DEFAULT.o5 AS X0F
      Another ordinary MODELS data card.          |  DEFAULT.o6 AS X1F
      Another ordinary MODELS data card.          |  DEFAULT.o7 AS RDIVX
      Another ordinary MODELS data card.          |  DEFAULT.o8 AS RINSER
      Another ordinary MODELS data card.          |  DEFAULT.o9 AS CLOSE1
      Another ordinary MODELS data card.          |  DEFAULT.o10 AS RPpos
      Another ordinary MODELS data card.          |  DEFAULT.o11 AS RPcero
      Another ordinary MODELS data card.          |  DEFAULT.o12 AS LPpos
      Another ordinary MODELS data card.          |  DEFAULT.o13 AS LPcero
      Another ordinary MODELS data card.          |  DEF.o1 AS CPpos
      Another ordinary MODELS data card.          |  DEF.o2 AS CPcero
      Another ordinary MODELS data card.          |  DEF.o3 AS Xp
      Another ordinary MODELS data card.          |  DEF.o4 AS CR
      Another ordinary MODELS data card.          |  DEF.o5 AS SIMET
      Another ordinary MODELS data card.          |  DEF.o6 AS ENC1
      Another ordinary MODELS data card.          |  DEF.o7 AS ENC2
      Another ordinary MODELS data card.          |  DEF.o8 AS ENC1AS
      Another ordinary MODELS data card.          |  DEF.o9 AS ENC2AS
Termination of data for Laurent Dube`s MODELS.    |ENDMODELS
Comment card.   NUMDCD = 153.                     |C        1         2         3         4         5         6         7         8
Comment card.   NUMDCD = 154.                     |C 345678901234567890123456789012345678901234567890123456789012345678901234567890
Optional blank card follows last of MODELS data.  |BLANK MODELS
Comment card.   NUMDCD = 156.                     |C < n1 >< n2 ><ref1><ref2>< R  >< L  >< C  >
Comment card.   NUMDCD = 157.                     |C < n1 >< n2 ><ref1><ref2>< R  >< A  >< B  ><Leng><><>0
1st of coupled R-L.   1.78720E+00  4.83706E-02    |51IFUENASB1A              1.787215.196067553
2nd coil. 1.496E+00 4.050E-02 0.000E+00 0.000E+00 |52IFUENBSB1B              1.496312.722393968
Zca, Zcc= 9.697E-02 2.625E-03 1.593E+00 4.312E-02 |53IFUENCSB1C
Series R-L-C.   1.000E+09  0.000E+00  0.000E+00   |  SB1A                      1.E9                                               0
Series R-L-C.   1.000E+09  0.000E+00  0.000E+00   |  SB1B                      1.E9                                               0
Series R-L-C.   1.000E+09  0.000E+00  0.000E+00   |  SB1C                      1.E9                                               0
Series R-L-C.   2.191E+01  3.487E+00  0.000E+00   |  RSNSHA                  21.9111095.5                                         0
Series R-L-C.   2.191E+01  3.487E+00  0.000E+00   |  RSNSHB                  21.9111095.5                                         0
Series R-L-C.   2.191E+01  3.487E+00  0.000E+00   |  RSNSHC                  21.9111095.5                                         0
Series R-L-C.   1.000E+09  0.000E+00  0.000E+00   |  RSNNHA                    1.E9                                               0
Series R-L-C.   1.000E+09  0.000E+00  0.000E+00   |  RSNNHB                    1.E9                                               0
Series R-L-C.   1.000E+09  0.000E+00  0.000E+00   |  RSNNHC                    1.E9                                               0
Series R-L-C.   1.000E+09  0.000E+00  0.000E+00   |  SE2A                      1.E9                                               0
Series R-L-C.   1.000E+09  0.000E+00  0.000E+00   |  SE2B                      1.E9                                               0
Series R-L-C.   1.000E+09  0.000E+00  0.000E+00   |  SE2C                      1.E9                                               0
Series R-L-C.   2.500E+02  0.000E+00  3.000E-10   |  X0001B                    250.       .0003                                   0
Series R-L-C.   2.500E+02  0.000E+00  3.000E-10   |  X0002B                    250.       .0003                                   0
Series R-L-C.   1.000E-06  0.000E+00  0.000E+00   |  X0001ALN1A               1.E-6                                               0
Series R-L-C.   1.000E-06  0.000E+00  0.000E+00   |  SB1A  X0002A             1.E-6                                               0
Series R-L-C.   1.000E-06  0.000E+00  0.000E+00   |  X0001BLN1B               1.E-6                                               0
Series R-L-C.   1.000E-06  0.000E+00  0.000E+00   |  SB1B  X0002B             1.E-6                                               0
Series R-L-C.   1.000E-06  0.000E+00  0.000E+00   |  X0001CLN1C               1.E-6                                               0
Series R-L-C.   1.000E-06  0.000E+00  0.000E+00   |  SB1C  X0002C             1.E-6                                               0
Series R-L-C.   1.000E-06  0.000E+00  0.000E+00   |  XX0005X0002A             1.E-6                                               0
Series R-L-C.   1.000E-06  0.000E+00  0.000E+00   |  XX0003X0002B             1.E-6                                               0
Series R-L-C.   1.000E-06  0.000E+00  0.000E+00   |  XX0004X0002C             1.E-6                                               0
Series R-L-C.   2.500E+02  0.000E+00  3.000E-10   |  X0001A                    250.       .0003                                   0
Series R-L-C.   1.000E+06  0.000E+00  0.000E+00   |  X0001AX0002A              1.E6                                               0
Series R-L-C.   1.000E+06  0.000E+00  0.000E+00   |  X0001BX0002B              1.E6                                               0
Series R-L-C.   1.000E+06  0.000E+00  0.000E+00   |  X0001CX0002C              1.E6                                               0
Series R-L-C.   2.500E+02  0.000E+00  3.000E-10   |  X0002C                    250.       .0003                                   0
Series R-L-C.   2.500E+02  0.000E+00  3.000E-10   |  X0002A                    250.       .0003                                   0
Series R-L-C.   2.500E+02  0.000E+00  3.000E-10   |  X0001C                    250.       .0003                                   0
Series R-L-C.   1.250E+02  0.000E+00  6.000E-10   |  X0001AX0002A              125.       .0006                                   0
Series R-L-C.   1.250E+02  0.000E+00  6.000E-10   |  X0001BX0002B              125.       .0006                                   0
Series R-L-C.   1.250E+02  0.000E+00  6.000E-10   |  X0001CX0002C              125.       .0006                                   0
 3.562E-01 9.912E-01 8.600E-03 6.057E+02 7.120E-04|-1LN1A  VFF2A             .35621.99124 .0086136.68 0 0                         0
 2.285E-02 4.091E-01 1.635E-02 2.822E+02 6.307E-04|-2LN1B  VFF2B             .02285.40912.01635136.68 0 0                         0
3rd or later transposed distributed phase.        |-3LN1C  VFF2C                                                                  0
Blank card ending branches.  IBR, NTOT = 39  31   |BLANK BRANCH
Comment card.   NUMDCD = 198.                     |C < n 1>< n 2>< Tclose ><Top/Tde ><   Ie   ><Vf/CLOP ><  type  >
Switch.  -1.00E+00  1.00E+01  0.00E+00  0.00E+00  |  LN1A  COMPA        -1.       10.                                             0
Switch.  -1.00E+00  1.00E+01  0.00E+00  0.00E+00  |  LN1B  COMPB        -1.       10.                                             0
Switch.  -1.00E+00  1.00E+01  0.00E+00  0.00E+00  |  LN1C  COMPC        -1.       10.                                             0
Switch.  -1.00E+00  1.00E+01  0.00E+00  0.00E+00  |  VFF2A RSNNHA       -1.       10.                                             0
Switch.  -1.00E+00  1.00E+01  0.00E+00  0.00E+00  |  VFF2B RSNNHB       -1.       10.                                             0
Switch.  -1.00E+00  1.00E+01  0.00E+00  0.00E+00  |  VFF2C RSNNHC       -1.       10.                                             0
Switch.   2.00E+00 -1.00E+00  0.00E+00  0.00E+00  |  VFF2A SE2A          2.       -1.                                             0
Switch.   2.00E+00 -1.00E+00  0.00E+00  0.00E+00  |  VFF2B SE2B          2.       -1.                                             0
Switch.   2.00E+00 -1.00E+00  0.00E+00  0.00E+00  |  VFF2C SE2C          2.       -1.                                             0
Switch.   5.05E-02  1.00E+03  0.00E+00  0.00E+00  |  X0001BXX0003.050483674      1.E3                                             0
Switch.   5.05E-02  1.00E+03  0.00E+00  0.00E+00  |  X0001CXX0004.050483674      1.E3                                             0
Switch.   5.80E-02  1.00E+03  0.00E+00  0.00E+00  |  XX0005X0002A.057983674      1.E3                                             0
Switch.   5.80E-02  1.00E+03  0.00E+00  0.00E+00  |  XX0003X0002B.057983674      1.E3                                             0
Switch.   5.80E-02  1.00E+03  0.00E+00  0.00E+00  |  XX0004X0002C.057983674      1.E3                                             0
Switch.   5.05E-02  1.00E+03  0.00E+00  0.00E+00  |  X0001AXX0005.050483674      1.E3                                             0
Permanently-closed switch used for metering.      |  VFUENAIFUENA                                        MEASURING                1
Permanently-closed switch used for metering.      |  VFUENBIFUENB                                        MEASURING                1
Permanently-closed switch used for metering.      |  VFUENCIFUENC                                        MEASURING                1
Permanently-closed switch used for metering.      |  COMPA RSNSHA                                        MEASURING                1
Permanently-closed switch used for metering.      |  COMPB RSNSHB                                        MEASURING                1
Permanently-closed switch used for metering.      |  COMPC RSNSHC                                        MEASURING                1
Blank card ending switches.   KSWTCH = 21.        |BLANK SWITCH
Comment card.   NUMDCD = 221.                     |C < n 1><>< Ampl.  >< Freq.  ><Phase/T0><   A1   ><   T1   >< TSTART >< TSTOP  >
Source.   4.29E+05  5.00E+01  0.00E+00 -1.00E+00  |14VFUENA  428660.705       50.                                     -1.      100.
Source.   4.29E+05  5.00E+01 -1.20E+02 -1.00E+00  |14VFUENB  428660.705       50.     -120.                           -1.      100.
Source.   4.29E+05  5.00E+01 -2.40E+02 -1.00E+00  |14VFUENC  428660.705       50.     -240.                           -1.      100.
Blank card ends electric sources.  KCONST = 3     |BLANK SOURCE
Pi-equivalent branches of distributed circuits are added to the table of List Size 3 between indices  40   and  45.

Sinusoidal steady-state phasor solution, branch by branch.   All flows are away from a bus,  and the real part,  magnitude,  or  "P"
is printed above the imaginary part,  the angle,  or  "Q".   The first solution frequency  =  5.00000000E+01  Hertz.
  Bus K                        Phasor  node  voltage              Phasor  branch  current               Power flow       Power loss
             Bus M         Rectangular            Polar          Rectangular            Polar            P  and  Q        P  and  Q

 IFUENA                    428660.705       428660.705      .42968023827626  .44587507836574      92093.516932034  .14873565064818
                                  0.0              0.0      .11907761478345       15.4896899       -25521.9471514        1.2646351

            SB1A      428661.57702179  428661.57705895      -.4296802382763  .44587507836574      -92093.36819638
                      -5.644737106614       -0.0007545      -.1190776147834     -164.5103101      25523.211786526

 IFUENB                  -214330.3525       428660.705      -.1117158797107  .44587507836504      92093.516931729   .1487356506471
                      -371231.0601341     -120.0000000      -.4316528092431     -104.5103101      -25521.94715193        1.2646351

            SB1B      -214335.6769966  428661.57705895      .11171587971072  .44587507836504      -92093.36819608
                      -371228.9929586     -120.0007545      .43165280924313       75.4896899      25523.211787062

 IFUENC                  -214330.3525       428660.705      -.3179643585662  .44587507836555      92093.516931694  .14873565064678
                      371231.06013415      120.0000000      .31257519445577      135.4896899      -25521.94715247        1.2646351

            SB1C      -214325.9000252  428661.57705895      .31796435856621  .44587507836555      -92093.36819604
                      371234.63769572      119.9992455      -.3125751944558      -44.5103101      25523.211787603

 SB1A                 428661.57702179  428661.57705895      .42866157702E-3  .42866157706E-3      91.875373823334  91.875373823334
                      -5.644737106614       -0.0007545      -.5644737107E-8       -0.0007545      -.951853274E-19        0.0000000

            TERRA                 0.0              0.0       -.428661577E-3  .42866157706E-3                  0.0
                                  0.0              0.0      .56447371066E-8      179.9992455                  0.0

 SB1B                 -214335.6769966  428661.57705895       -.214335677E-3  .42866157706E-3      91.875373823334  91.875373823334
                      -371228.9929586     -120.0007545       -.371228993E-3     -120.0007545      .7494005416E-15        0.0000000

            TERRA                 0.0              0.0        .214335677E-3  .42866157706E-3                  0.0
                                  0.0              0.0      .37122899296E-3       59.9992455                  0.0

 SB1C                 -214325.9000252  428661.57705895         -.2143259E-3  .42866157706E-3      91.875373823335  91.875373823335
                      371234.63769572      119.9992455       .3712346377E-3      119.9992455       .142247325E-15        0.0000000

            TERRA                 0.0              0.0      .21432590003E-3  .42866157706E-3                  0.0
                                  0.0              0.0      -.3712346377E-3      -60.0007545                  0.0

 RSNSHA               -189.5256553407  2161.9787659345      1.9616660695881  1.9731140670099      42.651723864853  42.651723864853
                      2153.6555458845       95.0291783      .21223890514966        6.1749934      2132.4888637646     2132.4888638

            TERRA                 0.0              0.0      -1.961666069588  1.9731140670099                  0.0
                                  0.0              0.0      -.2122389051497     -173.8250066                  0.0

 RSNSHB               1959.8832414076  2161.9787659344       -.797028751263  1.9731140670099      42.651723864851  42.651723864851
                      -912.6937407483      -24.9708217       -1.80497210258     -113.8250066      2132.4888637645     2132.4888638

            TERRA                 0.0              0.0      .79702875126303  1.9731140670099                  0.0
                                  0.0              0.0      1.8049721025801       66.1749934                  0.0

 RSNSHC               -1770.357586067  2161.9787659344      -1.164637318325  1.9731140670099      42.651723864853  42.651723864853
                      -1240.961805136     -144.9708217      1.5927331974304      126.1749934      2132.4888637646     2132.4888638

            TERRA                 0.0              0.0      1.1646373183251  1.9731140670099                  0.0
                                  0.0              0.0       -1.59273319743      -53.8250066                  0.0

 RSNNHA               -190.8671551953  2205.1206600727      -.1908671552E-6  .22051206601E-5      .00243127856274  .00243127856274
                      2196.8447497598       94.9655260      .21968447498E-5       94.9655260      .1196434038E-19        0.0000000

            TERRA                 0.0              0.0       .1908671552E-6  .22051206601E-5                  0.0
                                  0.0              0.0       -.219684475E-5      -85.0344740                  0.0

 RSNNHB                 1997.95693906  2205.1206600727      .19979569391E-5  .22051206601E-5      .00243127856274  .00243127856274
                      -933.1265697327      -25.0344740      -.9331265697E-6      -25.0344740       .652744765E-19        0.0000000

            TERRA                 0.0              0.0      -.1997956939E-5  .22051206601E-5                  0.0
                                  0.0              0.0      .93312656973E-6      154.9655260                  0.0

 RSNNHC               -1807.089783865  2205.1206600727      -.1807089784E-5  .22051206601E-5      .00243127856274  .00243127856274
                      -1263.718180027     -145.0344740       -.126371818E-5     -145.0344740      -.524101636E-19        0.0000000

            TERRA                 0.0              0.0      .18070897839E-5  .22051206601E-5                  0.0
                                  0.0              0.0        .126371818E-5       34.9655260                  0.0

 X0001B                1959.883241261  2161.9787659752      .86023710755E-4   .2037616982E-3      .51898537065E-5  .51898537065E-5
                      -912.6937411596      -24.9708217      .18471261689E-3       65.0278283      -.2202642323478       -0.2202642

            TERRA                 0.0              0.0      -.8602371075E-4   .2037616982E-3                  0.0
                                  0.0              0.0      -.1847126169E-3     -114.9721717                  0.0

 X0002B               -214335.6769965  428661.57705852      .03498703232601  .04040040182968      .20402405849954  .20402405849954
                      -371228.9929582     -120.0007545      -.0202014860102      -30.0021045      -8659.049978652    -8659.0499787

            TERRA                 0.0              0.0       -.034987032326  .04040040182968                  0.0
                                  0.0              0.0      .02020148601016      149.9978955                  0.0

 X0001A               -189.5256549112  2161.9787659752      .42946300027324  .43661351554841      44.043767247057  .95315680987E-7
                      2153.6555459632       95.0291783       .0786949385656       10.3837019      469.91504104716              0.0

            LN1A      -189.5256553407  2161.9787659345      -.4294630002732  .43661351554841      -44.04376715174
                      2153.6555458845       95.0291783      -.0786949385656     -169.6162981      -469.9150410472

 SB1A                 428661.57702179  428661.57705895      .42922329157591  .44543474692887      91995.430449774  .99206062032E-7
                      -5.644737106614       -0.0007545      .11907762065277       15.5053878      -25523.21175483              0.0

            X0002A    428661.57702136  428661.57705852      -.4292232915759  .44543474692887      -91995.43044967
                      -5.644737225692       -0.0007545      -.1190776206528     -164.4946122      25523.211754831

 X0001B                1959.883241261  2161.9787659752      -.1465793957323  .43661346858461      44.044074081911  .95315660475E-7
                      -912.6937411596      -24.9708217      -.4112733904549     -109.6162601      469.91496129844        0.0000000

            LN1B      1959.8832414076  2161.9787659344      .14657939573226  .43661346858461       -44.0440739866
                      -912.6937407483      -24.9708217      .41127339045488       70.3837399      -469.9149612984

 SB1B                 -214335.6769966  428661.57705895      -.1114967744797  .44544045738902      91997.079962091   .9920859867E-7
                      -371228.9929586     -120.0007545      -.4312605597079     -104.4956676      -25521.84435934        0.0000000

            X0002B    -214335.6769965  428661.57705852      .11149677447975  .44544045738902      -91997.07996199
                      -371228.9929582     -120.0007545      .43126055970788       75.5043324      25521.844359341

 X0001C                -1770.35758635  2161.9787659752      -.2828835476976  .43661361934719      44.044009952811  .95315726298E-7
                      -1240.961804804     -144.9708217      .33257833820244      130.3837302      469.91513099615              0.0

            LN1C      -1770.357586067  2161.9787659344      .28288354769757  .43661361934719       -44.0440098575
                      -1240.961805136     -144.9708217      -.3325783382024      -49.6162698      -469.9151309962

 SB1C                 -214325.9000252  428661.57705895      -.3177556209266  .44548136097645      92006.162881071  .99226816985E-7
                      371234.63769572      119.9992455      .31222589313984      135.5029067      -25521.89862606              0.0

            X0002C    -214325.9000248  428661.57705852      .31775562092662  .44548136097645      -92006.16288097
                      371234.63769541      119.9992455      -.3122258931398      -44.4970933      25521.898626058

 XX0005               428661.57702136  428661.57705852                  0.0              0.0                  0.0              0.0
                      -5.644737225692       -0.0007545                  0.0              0.0                  0.0              0.0

            X0002A    428661.57702136  428661.57705852                  0.0              0.0                  0.0
                      -5.644737225692       -0.0007545                  0.0              0.0                  0.0

 XX0003               -214335.6769965  428661.57705852                  0.0              0.0                  0.0              0.0
                      -371228.9929582     -120.0007545                  0.0              0.0                  0.0              0.0

            X0002B    -214335.6769965  428661.57705852                  0.0              0.0                  0.0
                      -371228.9929582     -120.0007545                  0.0              0.0                  0.0

 XX0004               -214325.9000248  428661.57705852                  0.0              0.0                  0.0              0.0
                      371234.63769541      119.9992455                  0.0              0.0                  0.0              0.0

            X0002C    -214325.9000248  428661.57705852                  0.0              0.0                  0.0
                      371234.63769541      119.9992455                  0.0              0.0                  0.0

 X0001A               -189.5256549112  2161.9787659752       -.202977674E-3   .2037616982E-3      .51898537064E-5  .51898537064E-5
                      2153.6555459632       95.0291783      -.1785758961E-4     -174.9721717      -.2202642323478       -0.2202642

            TERRA                 0.0              0.0      .20297767401E-3   .2037616982E-3                  0.0
                                  0.0              0.0      .17857589605E-4        5.0278283                  0.0

 X0001A               -189.5256549112  2161.9787659752      -.4288511026763  .42885653876835       42.96433756221  91958.965422183
                      2153.6555459632       95.0291783      .00215930028319      179.7115135      -461.5941564354        0.0000000

            X0002A    428661.57702136  428661.57705852      .42885110267627  .42885653876835       91916.00108462
                      -5.644737225692       -0.0007545      -.0021593002832       -0.2884865      461.59415643543

 X0001B                1959.883241261  2161.9787659752      .21629556023778  .42885653876835      42.964337562211  91958.965422183
                      -912.6937411596      -24.9708217      .37031629921702       59.7115135      -461.5941564354        0.0000000

            X0002B    -214335.6769965  428661.57705852      -.2162955602378  .42885653876835       91916.00108462
                      -371228.9929582     -120.0007545       -.370316299217     -120.2884865      461.59415643542

 X0001C                -1770.35758635  2161.9787659752      .21255554243849  .42885653876835      42.964337562214  91958.965422183
                      -1240.961804804     -144.9708217      -.3724755995002      -60.2884865      -461.5941564354        0.0000000

            X0002C    -214325.9000248  428661.57705852      -.2125555424385  .42885653876835       91916.00108462
                      371234.63769541      119.9992455      .37247559950021      119.7115135      461.59415643543

 X0002C               -214325.9000248  428661.57705852       -.034988516242  .04040040182968      .20402405850008  .20402405850008
                      371234.63769541      119.9992455      -.0201989157923     -150.0021045      -8659.049978652    -8659.0499787

            TERRA                 0.0              0.0        .034988516242  .04040040182968                  0.0
                                  0.0              0.0      .02019891579227       29.9978955                  0.0

 X0002A               428661.57702136  428661.57705852      .14839159913E-5  .04040040182968      .20402405849999  .20402405849999
                      -5.644737225692       -0.0007545      .04040040180243       89.9978955      -8659.049978652    -8659.0499787

            TERRA                 0.0              0.0      -.1483915991E-5  .04040040182968                  0.0
                                  0.0              0.0      -.0404004018024      -90.0021045                  0.0

 X0001C                -1770.35758635  2161.9787659752      .11695396325E-3   .2037616982E-3      .51898537064E-5  .51898537064E-5
                      -1240.961804804     -144.9708217      -.1668550273E-3      -54.9721717      -.2202642323478       -0.2202642

            TERRA                 0.0              0.0      -.1169539633E-3   .2037616982E-3                  0.0
                                  0.0              0.0      .16685502729E-3      125.0278283                  0.0

 X0001A               -189.5256549112  2161.9787659752        -.40892318E-3  .08083755307588      -87.00825778109  .40841937420594
                      2153.6555459632       95.0291783      -.0808365187841      -90.2898365      -8.100636918883   -17333.8566025

            X0002A    428661.57702136  428661.57705852         .40892318E-3  .08083755307588      87.416677155297
                      -5.644737225692       -0.0007545      .08083651878407       89.7101635      -17325.75596558

 X0001B                1959.883241261  2161.9787659752      -.0698020172305  .08083755307588      -87.00825778109  .40841937420607
                      -912.6937411596      -24.9708217      .04077239725411      149.7101635      -8.100636918883   -17333.8566025

            X0002B    -214335.6769965  428661.57705852      .06980201723051  .08083755307588      87.416677155296
                      -371228.9929582     -120.0007545      -.0407723972541      -30.2898365      -17325.75596558

 X0001C                -1770.35758635  2161.9787659752       .0702109404105  .08083755307588      -87.00825778109  .40841937420515
                      -1240.961804804     -144.9708217      .04006412152996       29.7101635      -8.100636918884   -17333.8566025

            X0002C    -214325.9000248  428661.57705852      -.0702109404105  .08083755307588      87.416677155296
                      371234.63769541      119.9992455        -.04006412153     -150.2898365      -17325.75596558

 LN1A                 -189.5256553407  2161.9787659345      -1.532203066006  1.5380117652071       1.392190435385  1.3897591568236
                      2153.6555458845       95.0291783      -.1335438296429     -175.0187995      -1662.573806178    -1662.5738062

            VFF2A     -190.8671551953  2205.1206600727       .1908671614E-6  .22051206589E-5      -.0024312785614
                      2196.8447497598       94.9655260      -.2196844748E-5      -85.0344738      .6983134833E-11

 LN1B                 1959.8832414076  2161.9787659344      .65044918401378   1.538011765207      1.3921904353846  1.3897591568227
                      -912.6937407483      -24.9708217      1.3936986937395       64.9812005      -1662.573806178    -1662.5738062

            VFF2B       1997.95693906  2205.1206600727      -.1997956938E-5  .22051206594E-5       -.002431278562
                      -933.1265697327      -25.0344740      .93312657015E-6      154.9655260      -.863236815E-12

 LN1C                 -1770.357586067  2161.9787659344      .88175388199268  1.5380117652071      1.3921904353824  1.3897591568204
                      -1240.961805136     -144.9708217      -1.260154864097      -55.0187995      -1662.573806178    -1662.5738062

            VFF2C     -1807.089783865  2205.1206600727      .18070897816E-5  .22051206594E-5       -.002431278562
                      -1263.718180027     -145.0344740       .1263718182E-5       34.9655261      .3206658751E-11
     Total network loss  P-loss  by summing injections =   2.763043606962E+05

Output for steady-state phasor switch currents.
      Node-K    Node-M            I-real            I-imag            I-magn          Degrees        Power            Reactive
      LN1A      COMPA         1.96166608E+00    2.12238686E-01    1.97311405E+00       6.1750    4.26514875E+01    2.13248885E+03
      LN1B      COMPB        -7.97028747E-01   -1.80497211E+00    1.97311407E+00    -113.8250    4.26517314E+01    2.13248887E+03
      LN1C      COMPC        -1.16463768E+00    1.59273316E+00    1.97311425E+00     126.1750    4.26520677E+01    2.13248906E+03
      VFF2A     RSNNHA       -1.90867157E-07    2.19684475E-06    2.20512066E-06      94.9655    2.43127856E-03   -1.66675876E-12
      VFF2B     RSNNHB        1.99795694E-06   -9.33126574E-07    2.20512066E-06     -25.0345    2.43127856E-03    5.19703059E-12
      VFF2C     RSNNHC       -1.80708978E-06   -1.26371818E-06    2.20512066E-06    -145.0345    2.43127856E-03   -2.01245905E-12
      VFF2A     SE2A              Open              Open              Open             Open          Open              Open
      VFF2B     SE2B              Open              Open              Open             Open          Open              Open
      VFF2C     SE2C              Open              Open              Open             Open          Open              Open
      X0001B    XX0003            Open              Open              Open             Open          Open              Open
      X0001C    XX0004            Open              Open              Open             Open          Open              Open
      XX0005    X0002A            Open              Open              Open             Open          Open              Open
      XX0003    X0002B            Open              Open              Open             Open          Open              Open
      XX0004    X0002C            Open              Open              Open             Open          Open              Open
      X0001A    XX0005            Open              Open              Open             Open          Open              Open
      VFUENA    IFUENA        4.29680238E-01    1.19077615E-01    4.45875078E-01      15.4897    9.20935169E+04   -2.55219471E+04
      VFUENB    IFUENB       -1.11715880E-01   -4.31652809E-01    4.45875078E-01    -104.5103    9.20935169E+04   -2.55219472E+04
      VFUENC    IFUENC       -3.17964359E-01    3.12575194E-01    4.45875078E-01     135.4897    9.20935169E+04   -2.55219472E+04
      COMPA     RSNSHA        1.96166608E+00    2.12238686E-01    1.97311405E+00       6.1750    4.26514875E+01    2.13248885E+03
      COMPB     RSNSHB       -7.97028747E-01   -1.80497211E+00    1.97311407E+00    -113.8250    4.26517314E+01    2.13248887E+03
      COMPC     RSNSHC       -1.16463768E+00    1.59273316E+00    1.97311425E+00     126.1750    4.26520677E+01    2.13248906E+03

Solution at nodes with known voltage.   Nodes that are shorted together by switches are shown as a group of names, with the printed
result applying to the composite group.   The entry "MVA" is  SQRT( P**2 + Q**2 )  in units of power,  while  "P.F."  is the
associated power factor.
              Node                Source  node  voltage             Injected  source  current              Injected  source  power
              name         Rectangular            Polar          Rectangular            Polar            P  and  Q    MVA and P.F.

               VFUENA
              IFUENA       428660.705       428660.705       .4296802382773   .4458750783645      92093.516932257  95564.562716828
                                  0.0              0.0      .11907761477503       15.4896899      -25521.94714959        0.9636785

               VFUENB
              IFUENB     -214330.3525       428660.705      -.1117158797094  .44587507836492      92093.516931626  95564.562716918
                      -371231.0601341     -120.0000000      -.4316528092434     -104.5103101      -25521.94715221        0.9636785

               VFUENC
              IFUENC     -214330.3525       428660.705      -.3179643585676  .44587507836658      92093.516931851  95564.562717274
                      371231.06013415      120.0000000      .31257519445581      135.4896899      -25521.94715273        0.9636785

  +++  Node  "COMPC "  has no connected linear branches.  Add (to ground) the conductance  G = 1.00000000E-18  mhos.
  +++  Node  "COMPB "  has no connected linear branches.  Add (to ground) the conductance  G = 1.00000000E-18  mhos.
  +++  Node  "COMPA "  has no connected linear branches.  Add (to ground) the conductance  G = 1.00000000E-18  mhos.
Card of names for time-step loop output.          |  LN1A  LN1B  LN1C  COMPA COMPB COMPC SB1A  SB1B  SB1C  SE2A  SE2B  SE2C  VFF2A
Card of names for time-step loop output.          |  VFF2B VFF2C IFUENAIFUENBIFUENC
Card of names for time-step loop output.          |-5VFF2A VFF2B VFF2B VFF2C VFF2C VFF2A LN1A  LN1B  LN1B  LN1C  LN1C  LN1A
Card of names for time-step loop output.          |-5SB1A  SB1B  SB1B  SB1C  SB1C  SB1A
Blank card ending requests for output variables.  |BLANK OUTPUT

Column headings for the  55   EMTP output variables follow.  These are divided among the 5 possible classes as follows ....
  First  27     output variables are electric-network voltage differences (upper voltage minus lower voltage);
  Next   6     output variables are branch currents (flowing from the upper node to the lower node);
  Next   22     output variables belong to MODELS (with "MODELS" an internally-added upper name of pair).
   Step      Time      LN1A       LN1B       LN1C       COMPA      COMPB      COMPC      SB1A       SB1B       SB1C       SE2A
 

                       SE2B       SE2C       VFF2A      VFF2B      VFF2C      IFUENA     IFUENB     IFUENC     VFF2A      VFF2B
                                                                                                               VFF2B      VFF2C

                       VFF2C      LN1A       LN1B       LN1C       SB1A       SB1B       SB1C       VFUENA     VFUENB     VFUENC
                       VFF2A      LN1B       LN1C       LN1A       SB1B       SB1C       SB1A       IFUENA     IFUENB     IFUENC

                       COMPA      COMPB      COMPC      MODELS     MODELS     MODELS     MODELS     MODELS     MODELS     MODELS
                       RSNSHA     RSNSHB     RSNSHC     ANVOL      LONG       R0F        R1F        X0F        X1F        RDIVX

                       MODELS     MODELS     MODELS     MODELS     MODELS     MODELS     MODELS     MODELS     MODELS     MODELS
                       RINSER     CLOSE1     RPPOS      RPCERO     LPPOS      LPCERO     CPPOS      CPCERO     XP         CR

                       MODELS     MODELS     MODELS     MODELS     MODELS
                       SIMET      ENC1       ENC2       ENC1AS     ENC2AS
 ***      Phasor I(0) =  1.9616661E+00                     Switch  "LN1A  "  to  "COMPA "  closed in the steady-state.
 ***      Phasor I(0) = -7.9702875E-01                     Switch  "LN1B  "  to  "COMPB "  closed in the steady-state.
 ***      Phasor I(0) = -1.1646377E+00                     Switch  "LN1C  "  to  "COMPC "  closed in the steady-state.
 ***      Phasor I(0) = -1.9086716E-07                     Switch  "VFF2A "  to  "RSNNHA"  closed in the steady-state.
 ***      Phasor I(0) =  1.9979569E-06                     Switch  "VFF2B "  to  "RSNNHB"  closed in the steady-state.
 ***      Phasor I(0) = -1.8070898E-06                     Switch  "VFF2C "  to  "RSNNHC"  closed in the steady-state.
 ***      Phasor I(0) =  4.2968024E-01                     Switch  "VFUENA"  to  "IFUENA"  closed in the steady-state.
 ***      Phasor I(0) = -1.1171588E-01                     Switch  "VFUENB"  to  "IFUENB"  closed in the steady-state.
 ***      Phasor I(0) = -3.1796436E-01                     Switch  "VFUENC"  to  "IFUENC"  closed in the steady-state.
 ***      Phasor I(0) =  1.9616661E+00                     Switch  "COMPA "  to  "RSNSHA"  closed in the steady-state.
 ***      Phasor I(0) = -7.9702875E-01                     Switch  "COMPB "  to  "RSNSHB"  closed in the steady-state.
 ***      Phasor I(0) = -1.1646377E+00                     Switch  "COMPC "  to  "RSNSHC"  closed in the steady-state.
      0       0.0  -189.52566 1959.88324 -1770.3576 -189.52566 1959.88324 -1770.3576 428661.577 -214335.68  -214325.9        0.0
                          0.0        0.0 -190.86716 1997.95694 -1807.0898 428660.705 -214330.35 -214330.35 -2188.8241 3805.04672
                   -1616.2226 -2149.4089 3730.24083 -1580.8319 642997.254 -9.7769715 -642987.48 .429680238 -.11171588 -.31796436
                   1.96166608 -.79702875 -1.1646377        0.0    136.679   1.787179   1.496255   15.19607   12.72239    .117608
                        .1E-5    .050484    .022852    .356212    .409118    .991237    .016352    .008603   2191.085   43.82169
                          1.0        1.0        0.0        0.0        0.0
    500     .5E-3  -524.09936 2078.53022  -1554.432 -524.09936 2078.53022  -1554.432  423384.89 -153623.84 -269761.06        0.0
                          0.0        0.0 -532.17949 2119.33191 -1587.1524  423383.18 -153618.26 -269764.92 -2651.5114 3706.48432
                   -1054.9729 -2602.6296 3632.96223 -1030.3326 577008.729 116137.218 -693145.95 .405794507 -.04281201 -.36296821
                   1.90431324 -.50485614 -1.3994571        0.0    136.679   1.787179   1.496255   15.19607   12.72239    .117608
                        .1E-5    .050484    .022852    .356212    .409118    .991237    .016352    .008603   2191.085   43.82169
                          1.0        1.0        0.0        0.0        0.0
   1000     .1E-2  -845.76574 2145.99748 -1300.2319 -845.76574 2145.99748 -1300.2319 407683.121 -89129.274 -318553.85        0.0
                          0.0        0.0 -860.38834 2188.52009 -1328.1366 407680.557 -89123.572 -318556.98 -3048.9084 3516.65673
                   -467.74831 -2991.7632 3446.22936 -454.46615 496812.396 229424.574 -726236.97 .371889106 .027141979 -.39902129
                   1.80006985 -.20025228 -1.5998176        0.0    136.679   1.787179   1.496255   15.19607   12.72239    .117608
                        .1E-5    .050484    .022852    .356212    .409118    .991237    .016352    .008603   2191.085   43.82169
                          1.0        1.0        0.0        0.0        0.0
   1500     .0015  -1146.6088 2160.62149 -1014.0168 -1146.6088 2160.62149 -1014.0168 381942.875 -22440.073 -359502.85        0.0
                          0.0        0.0 -1167.4112 2203.82291 -1036.4125 381939.485 -22434.368 -359505.12 -3371.2341 3240.23544
                   130.998651 -3307.2303  3174.6383 132.591976 404382.949 337062.777 -741445.73 .328821763 .096427928 -.42524514
                   1.65150278 .109282527 -1.7607852        0.0    136.679   1.787179   1.496255   15.19607   12.72239    .117608
                        .1E-5    .050484    .022852    .356212    .409118    .991237    .016352    .008603   2191.085   43.82169
                          1.0        1.0        0.0        0.0        0.0
   2000      .002  -1419.2163 2122.04678 -702.82994 -1419.2163 2122.04678 -702.82994  346797.83 44801.7081 -391599.57        0.0
                          0.0        0.0 -1445.6901 2164.85916 -719.16916 346793.795 44807.2448 -391601.04 -3610.5492 2884.02832
                   726.520889 -3541.2631 2824.87673 716.386376 301996.122 436401.281  -738397.4 .277652674  .16333988 -.44099363
                   1.46227016 .416126392 -1.8783965        0.0    136.679   1.787179   1.496255   15.19607   12.72239    .117608
                        .1E-5    .050484    .022852    .356212    .409118    .991237    .016352    .008603   2191.085   43.82169
                          1.0        1.0        0.0        0.0        0.0
   2500     .0025  -1656.8793 2031.21862 -374.33902 -1656.8793 2031.21862 -374.33902 303113.491 110940.326 -414053.82        0.0
                          0.0        0.0 -1688.3659 2072.58861 -384.22297 303108.891 110945.554 -414054.45 -3760.9545 2456.81158
                   1304.14295 -3688.0979 2405.55764  1282.5403 192173.165  524994.15 -717167.31 .219654011 .226227537  -.4458927
                   1.23703177 .712723538 -1.9497554        0.0    136.679   1.787179   1.496255   15.19607   12.72239    .117608
                        .1E-5    .050484    .022852    .356212    .409118    .991237    .016352    .008603   2191.085   43.82169
                          1.0        1.0        0.0        0.0        0.0
   3000      .003   -1853.746 1890.37493 -36.629568  -1853.746 1890.37493 -36.629568 251965.501 174347.205 -426312.74        0.0
                          0.0        0.0 -1889.4728 1929.28475 -39.811569 251960.441 174352.016 -426312.46 -3818.7576 1969.09632
                   1849.66125 -3744.1209  1927.0045 1817.11645 77618.2962 600659.941 -678278.24 .156242088 .283544436 -.43980949
                   .981333521 .991771297 -1.9731048        0.0    136.679   1.787179   1.496255   15.19607   12.72239    .117608
                        .1E-5    .050484    .022852    .356212    .409118    .991237    .016352    .008603   2191.085   43.82169
                          1.0        1.0        0.0        0.0        0.0
   3500     .0035  -2004.9642  1702.9841 301.979625 -2004.9642  1702.9841 301.979625 194613.334 233461.101 -428074.41        0.0
                          0.0        0.0  -2044.053 1738.47497 305.578142 194607.888 233465.353 -428073.24 -3782.5279 1432.89683
                   2349.63111 -3707.9483 1401.00448 2306.94384 -38847.768  661535.51 -622687.74 .088990499  .33388254 -.42289703
                   .701471609 1.24639844 -1.9478698        0.0    136.679   1.787179   1.496255   15.19607   12.72239    .117608
                        .1E-5    .050484    .022852    .356212    .409118    .991237    .016352    .008603   2191.085   43.82169
                          1.0        1.0        0.0        0.0        0.0
   4000      .004  -2106.8154 1473.66036  633.15499 -2106.8154 1473.66036  633.15499 132469.074 286826.393 -419295.45        0.0
                          0.0        0.0 -2148.3053 1504.85781 643.445317 132463.443 286829.997 -419293.44 -3653.1631 861.412493
                   2791.75064 -3580.4758 840.505374 2739.97042 -154357.32 706121.843 -551764.52 .019537688 .375997854 -.39556669
                   .404336756 1.47033486 -1.8746719        0.0    136.679   1.787179   1.496255   15.19607   12.72239    .117608
                        .1E-5    .050484    .022852    .356212    .409118    .991237    .016352    .008603   2191.085   43.82169
                          1.0        1.0        0.0        0.0        0.0
   4500     .0045  -2156.7899 1208.04855 948.736919 -2156.7899 1208.04855 948.736919 67063.0385  333129.06  -400192.1        0.0
                          0.0        0.0 -2199.6562 1234.18753 965.469148 67057.3081 333131.936 -400189.24 -3433.8437 268.718379
                   3165.12531 -3364.8385 259.311634 3105.52683 -266066.02 733321.156 -467255.13 -.05039044 .408854429 -.35850117
                   .097246544 1.65806693 -1.7553132        0.0    136.679   1.787179   1.496255   15.19607   12.72239    .117608
                        .1E-5    .050484    .022852    .356212    .409118    .991237    .016352    .008603   2191.085   43.82169
                          1.0        1.0        0.0        0.0        0.0
   5000      .005  -2153.6549  912.69441 1240.96279 -2153.6549  912.69441 1240.96279 5.64636764 371228.994 -371234.64        0.0
                          0.0        0.0 -2196.8423  933.12904 1263.72109 -.45661E-7  371231.06 -371231.06 -3129.9714 -330.59205
                   3460.56342 -3066.3493 -328.26838 3394.61765 -371223.35 742463.631 -371240.28 -.11907829 .431644521 -.31260627
                   -.21223865 1.80497191  -1.592733        0.0    136.679   1.787179   1.496255   15.19607   12.72239    .117608
                        .1E-5    .050484    .022852    .356212    .409118    .991237    .016352    .008603   2191.085   43.82169
                          1.0        1.0        0.0        0.0        0.0
   5500     .0055  -2097.4906 594.863585 1502.62748 -2097.4906 594.863585 1502.62748 -67051.862 400188.033 -333136.17        0.0
                          0.0        0.0 -2139.9386 609.089107 1530.85056 -67057.308 400189.244 -333131.94 -2749.0277 -921.76145
                   3670.78912 -2692.3542  -907.7639  3600.1181 -467239.89 733324.208 -266084.31 -.18483627 .443804941 -.25901433
                   -.51649774 1.90743237 -1.3909345        0.0    136.679   1.787179   1.496255   15.19607   12.72239    .117608
                        .1E-5    .050484    .022852    .356212    .409118    .991237    .016352    .008603   2191.085   43.82169
                          1.0        1.0        0.0        0.0        0.0
   6000      .006   -1989.682 262.385963 1727.29563  -1989.682 262.385963 1727.29563 -132458.35 419293.112 -286834.78        0.0
                          0.0        0.0 -2030.3443 270.053699 1760.29093 -132463.44  419293.44   -286830.  -2300.398 -1490.2372
                   3790.63521  -2252.068 -1464.9097 3716.97762 -551751.46 706127.896 -154376.43 -.24604034 .445038236  -.1990451
                    -.8080392 1.96292566 -1.1548865        0.0    136.679   1.787179   1.496255   15.19607   12.72239    .117608
                        .1E-5    .050484    .022852    .356212    .409118    .991237    .016352    .008603   2191.085   43.82169
                          1.0        1.0        0.0        0.0        0.0
   6500     .0065  -1832.8751 -76.552369 1909.42821 -1832.8751 -76.552369 1909.42821 -194603.24 428073.819 -233470.57        0.0
                          0.0        0.0 -1870.7497 -75.631083 1946.38258 -194607.89  428073.24 -233465.35 -1795.1186 -2022.0137
                   3817.13228 -1756.3228 -1985.9806 3742.30335 -622677.06 661544.386 -38867.327 -.30118576 .435312961 -.13417538
                   -1.0796838  1.9700851 -.89040123        0.0    136.679   1.787179   1.496255   15.19607   12.72239    .117608
                        .1E-5    .050484    .022852    .356212    .409118    .991237    .016352    .008603   2191.085   43.82169
                          1.0        1.0        0.0        0.0        0.0
   7000      .007  -1630.9438 -413.60577 2044.54918 -1630.9438 -413.60577 2044.54918 -251956.39 426313.915 -174357.52        0.0
                          0.0        0.0 -1665.0944 -419.45479 2084.54837 -251960.44 426312.457 -174352.02 -1245.6396 -2504.0032
                   3749.64278  -1217.338  -2458.155 3675.49298 -678270.31 600671.437 77598.8697 -.34891836 .414869325 -.06599849
                    -1.324743 1.92873455  -.6039915        0.0    136.679   1.787179   1.496255   15.19607   12.72239    .117608
                        .1E-5    .050484    .022852    .356212    .409118    .991237    .016352    .008603   2191.085   43.82169
                          1.0        1.0        0.0        0.0        0.0
   7500     .0075    -1388.85 -740.47527 2129.32338   -1388.85 -740.47527 2129.32338 -303105.51 414056.745 -110951.24        0.0
                          0.0        0.0 -1418.4402 -752.94879 2171.38856 -303108.89 414054.446 -110945.55 -665.49139 -2924.3373
                   3589.82874 -648.37472 -2869.7986 3518.17337 -717162.26 525007.986 192154.273 -.38805768 .384209693 .003801272
                   -1.5371826 1.83989218 -.30270927        0.0    136.679   1.787179   1.496255   15.19607   12.72239    .117608
                        .1E-5    .050484    .022852    .356212    .409118    .991237    .016352    .008603   2191.085   43.82169
                          1.0        1.0        0.0        0.0        0.0
   8000      .008  -1112.5571 -1049.1103 2161.66872 -1112.5571 -1049.1103 2161.66872 -346791.19 391604.136 -44812.936        0.0
                          0.0        0.0 -1136.8568 -1067.9015  2204.7624  -346793.8  391601.04 -44807.245 -68.955352 -3272.6639
                   3341.61922 -63.446842  -3210.779 3274.22582 -738395.33 436417.072 301978.258 -.41764011 .344090093 .073507205
                   -1.7117719 1.70574547 .006026168        0.0    136.679   1.787179   1.496255   15.19607   12.72239    .117608
                        .1E-5    .050484    .022852    .356212    .409118    .991237    .016352    .008603   2191.085   43.82169
                          1.0        1.0        0.0        0.0        0.0
   8500     .0085  -808.87015 -1331.9142  2140.7844 -808.87015 -1331.9142  2140.7844  -381937.7 359508.921 22428.7712        0.0
                          0.0        0.0 -827.28142 -1356.5618 2183.84348 -381939.48 359505.117 22434.3679 529.280421 -3540.4053
                    3011.1249  523.04403 -3472.6986 2949.65455 -741446.62 337080.149 404366.468 -.43694234 .295497482 .141405058
                   -1.8442114 1.52959779 .314613826        0.0    136.679   1.787179   1.496255   15.19607   12.72239    .117608
                        .1E-5    .050484    .022852    .356212    .409118    .991237    .016352    .008603   2191.085   43.82169
                          1.0        1.0        0.0        0.0        0.0
   9000      .009  -485.27009 -1581.9218 2067.19024 -485.27009 -1581.9218 2067.19024 -407679.65 318561.408 89118.2307        0.0
                          0.0        0.0 -497.33761 -1611.8176 2109.15514 -407680.56 318556.985  89123.572 1114.47997 -3720.9727
                   2606.49275 1096.65169  -3649.112 2552.46033 -726241.05 229443.177 496797.876 -.44548286 .239628888 .205819297
                   -1.9312404 1.31578617 .615454223        0.0    136.679   1.787179   1.496255   15.19607   12.72239    .117608
                        .1E-5    .050484    .022852    .356212    .409118    .991237    .016352    .008603   2191.085   43.82169
                          1.0        1.0        0.0        0.0        0.0
   9500     .0095  -149.71286 -1792.9765 1942.69001 -149.71286 -1792.9765 1942.69001 -423383.16  269769.86 153613.302        0.0
                          0.0        0.0 -155.14796  -1827.385  1982.5328 -423383.18 269764.922 153618.258 1672.23706 -3809.9178
                   2137.68076 1643.26365 -3735.6665 2092.40287 -693153.02 116156.558 576996.458 -.44305586 .177859262 .265165866
                   -1.9707159 1.06957572  .90114016        0.0    136.679   1.787179   1.496255   15.19607   12.72239    .117608
                        .1E-5    .050484    .022852    .356212    .409118    .991237    .016352    .008603   2191.085   43.82169
                          1.0        1.0        0.0        0.0        0.0
  10000       .01  189.525407 -1959.8827 1770.35734 189.525407 -1959.8827 1770.35734 -428661.58 214335.674 214325.898        0.0
                          0.0        0.0 190.866388 -1997.9561 1807.09042 -428660.71 214330.353 214330.352 2188.82253 -3805.0466
                   1616.22403 2149.40812 -3730.2401 1580.83194 -642997.26 9.77590384  642987.48 -.42971803 .111710541 .317982874
                   -1.9616657 .797028573 1.16463721        0.0    136.679   1.787179   1.496255   15.19607   12.72239    .117608
                        .1E-5    .050484    .022852    .356212    .409118    .991237    .016352    .008603   2191.085   43.82169
                          1.0        1.0        0.0        0.0        0.0
  10500     .0105  524.098334 -2078.5302 1554.43161 524.098334 -2078.5302 1554.43161 -423384.92 153623.836 269761.072        0.0
                          0.0        0.0 532.179118 -2119.3315 1587.15201 -423383.18 153618.258 269764.922 2651.51061 -3706.4835
                   1054.97289 2602.62852 -3632.9618 1030.33327 -577008.75 -116137.24  693145.99 -.40579924 .042811474 .362970767
                    -1.904313  .50485608 1.39945687        0.0    136.679   1.787179   1.496255   15.19607   12.72239    .117608
                        .1E-5    .050484    .022852    .356212    .409118    .991237    .016352    .008603   2191.085   43.82169
                          1.0        1.0        0.0        0.0        0.0
  11000      .011  845.765806 -2145.9969 1300.23165 845.765806 -2145.9969 1300.23165 -407683.13 89129.2769 318553.861        0.0
                          0.0        0.0 860.388052 -2188.5207 1328.13465 -407680.56  89123.572 318556.985 3048.90877 -3516.6554
                   467.746593 2991.76266 -3446.2285 454.465842 -496812.41 -229424.58 726236.994 -.37188839 -.02714214 .399020501
                   -1.8000696 .200252457 1.59981727        0.0    136.679   1.787179   1.496255   15.19607   12.72239    .117608
                        .1E-5    .050484    .022852    .356212    .409118    .991237    .016352    .008603   2191.085   43.82169
                          1.0        1.0        0.0        0.0        0.0
  11500     .0115   1146.6072 -2160.6242 1014.01236  1146.6072 -2160.6242 1014.01236 -381942.82 22440.0485 359502.769        0.0
                          0.0        0.0 1167.40963 -2203.8232 1036.41204 -381939.48 22434.3679 359505.117 3371.23282 -3240.2352
                   -130.99759 3307.23138 -3174.6365 -132.59484 -404382.87 -337062.72 741445.592 -.32882134 -.09642688 .425246633
                   -1.6515026 -.10928242 1.76078479        0.0    136.679   1.787179   1.496255   15.19607   12.72239    .117608
                        .1E-5    .050484    .022852    .356212    .409118    .991237    .016352    .008603   2191.085   43.82169
                          1.0        1.0        0.0        0.0        0.0
  12000      .012   1419.2155 -2122.0466 702.829868  1419.2155 -2122.0466 702.829868 -346797.82 -44801.723 391599.541        0.0
                          0.0        0.0 1445.69189 -2164.8592 719.166975  -346793.8 -44807.245  391601.04 3610.55107 -2884.0262
                   -726.52491 3541.26213 -2824.8765 -716.38563  -301996.1 -436401.26 738397.361 -.27765571 -.16333818   .4409988
                     -1.46227 -.41612591 1.87839609        0.0    136.679   1.787179   1.496255   15.19607   12.72239    .117608
                        .1E-5    .050484    .022852    .356212    .409118    .991237    .016352    .008603   2191.085   43.82169
                          1.0        1.0        0.0        0.0        0.0
  12500     .0125  1656.87923 -2031.2179 374.339285 1656.87923 -2031.2179 374.339285  -303113.5 -110940.33 414053.829        0.0
                          0.0        0.0 1688.36801 -2072.5884 384.220924 -303108.89 -110945.55 414054.446 3760.95641 -2456.8093
                   -1304.1471 3688.09717 -2405.5572 -1282.5399 -192173.17 -524994.16 717167.329 -.21965638 -.22622712 .445895165
                   -1.2370317 -.71272332 1.94975495        0.0    136.679   1.787179   1.496255   15.19607   12.72239    .117608
                        .1E-5    .050484    .022852    .356212    .409118    .991237    .016352    .008603   2191.085   43.82169
                          1.0        1.0        0.0        0.0        0.0
  13000      .013  1853.74259 -1890.3745 36.6322963 1853.74259 -1890.3745 36.6322963 -251965.53 -174347.22 426312.733        0.0
                          0.0        0.0 1889.47308 -1929.2841 39.8117342 -251960.44 -174352.02 426312.457 3818.75717 -1969.0958
                   -1849.6613 3744.11705 -1927.0068 -1817.1103 -77618.308 -600659.95 678278.258 -.15624584 -.28354513 .439811039
                   -.98133355 -.99177094 1.97310443        0.0    136.679   1.787179   1.496255   15.19607   12.72239    .117608
                        .1E-5    .050484    .022852    .356212    .409118    .991237    .016352    .008603   2191.085   43.82169
                          1.0        1.0        0.0        0.0        0.0
  13500     .0135  2004.96332 -1702.9842 -301.97958 2004.96332 -1702.9842 -301.97958 -194613.31  -233461.1 428074.405        0.0
                          0.0        0.0 2044.05438 -1738.4751 -305.57969 -194607.89 -233465.35  428073.24 3782.52943 -1432.8954
                   -2349.6341 3707.94747 -1401.0046 -2306.9429 38847.7807  -661535.5 622687.719 -.08898874 -.33388178 .422897051
                   -.70147142 -1.2463979 1.94786952        0.0    136.679   1.787179   1.496255   15.19607   12.72239    .117608
                        .1E-5    .050484    .022852    .356212    .409118    .991237    .016352    .008603   2191.085   43.82169
                          1.0        1.0        0.0        0.0        0.0
  14000      .014  2106.81516 -1473.6603 -633.15479 2106.81516 -1473.6603 -633.15479 -132469.08 -286826.38  419295.47        0.0
                          0.0        0.0 2148.30434 -1504.8584 -643.44596 -132463.44   -286830.  419293.44 3653.16279 -861.41249
                   -2791.7503 3580.47549 -840.50554 -2739.9699 154357.303 -706121.85 551764.552 -.01954071 -.37599747 .395569577
                   -.40433726 -1.4703345 1.87467158        0.0    136.679   1.787179   1.496255   15.19607   12.72239    .117608
                        .1E-5    .050484    .022852    .356212    .409118    .991237    .016352    .008603   2191.085   43.82169
                          1.0        1.0        0.0        0.0        0.0
  14500     .0145  2156.78749 -1208.0505 -948.73852 2156.78749 -1208.0505 -948.73852 -67063.015 -333129.06 400192.078        0.0
                          0.0        0.0 2199.65525 -1234.1874  -965.4682 -67057.308 -333131.94 400189.244 3433.84262 -268.71917
                   -3165.1235 3364.83796 -259.31195  -3105.526 266066.046 -733321.14 467255.093 .050388301 -.40885406 .358503386
                   -.09724658 -1.6580666   1.755313        0.0    136.679   1.787179   1.496255   15.19607   12.72239    .117608
                        .1E-5    .050484    .022852    .356212    .409118    .991237    .016352    .008603   2191.085   43.82169
                          1.0        1.0        0.0        0.0        0.0
  % % % % % %   Suspended simulation;  plot data space exhausted;  SPY SPACE is required.   LIMBUF =  840000.
  % % % % % %   Suspended simulation;  plot data space exhausted;  SPY SPACE is required.   LIMBUF =  840000.
  +++  Time-sharing disabled.   Send  user-keyed interrupt to silence alarm.
   Current values.  INDBUF  INDBEG  LIMBUF  MFLUSH  NUMDCD  KCARD1  KCARD2
                    839994      50  840000    1000     230       1     231
Plot timespan now in memory (in sec) = 0.00000000E+00   1.49990000E-02
   ++++  Begin plot-data copy from memory to disk.   MFLUSH, INDBUF, N4, Tbeg,  Tend = 1001  839994       1  -1.00000E+00
1.00000E+19
  15000      .015  2153.65543 -912.69322 -1240.9611 2153.65543 -912.69322 -1240.9611 -5.6457824 -371228.99 371234.637        0.0
                          0.0        0.0 2196.84483  -933.1253 -1263.7163 -.61533E-6 -371231.06  371231.06 3129.97013 330.590972
                   -3460.5611 3066.34865 328.267871 -3394.6165 371223.348 -742463.63 371240.283 .119078257 -.43164403 .312607149
                   .212238538 -1.8049715 1.59273277        0.0    136.679   1.787179   1.496255   15.19607   12.72239    .117608
                        .1E-5    .050484    .022852    .356212    .409118    .991237    .016352    .008603   2191.085   43.82169
                          1.0        1.0        0.0        0.0        0.0
  15500     .0155  2097.49329 -594.86371 -1502.6292 2097.49329 -594.86371 -1502.6292 67051.8688 -400188.04 333136.166        0.0
                          0.0        0.0 2139.93964 -609.08858 -1530.8501 67057.3081 -400189.24 333131.936 2749.02822  921.76155
                   -3670.7898   2692.357 907.765516 -3600.1225 467239.904  -733324.2 266084.297 .184833621 -.44380526 .259015716
                   .516497512  -1.907432 1.39093427        0.0    136.679   1.787179   1.496255   15.19607   12.72239    .117608
                        .1E-5    .050484    .022852    .356212    .409118    .991237    .016352    .008603   2191.085   43.82169
                          1.0        1.0        0.0        0.0        0.0
  16000      .016  1989.68092 -262.38602 -1727.2944 1989.68092 -262.38602 -1727.2944 132458.346 -419293.12 286834.773        0.0
                          0.0        0.0 2030.34109 -270.05341 -1760.2874 132463.443 -419293.44 286829.997  2300.3945 1490.23395
                   -3790.6285 2252.06694 1464.90839 -3716.9753 551751.466 -706127.89 154376.428 .246040369 -.44503803 .199045419
                   .808038938 -1.9629253 1.15488635        0.0    136.679   1.787179   1.496255   15.19607   12.72239    .117608
                        .1E-5    .050484    .022852    .356212    .409118    .991237    .016352    .008603   2191.085   43.82169
                          1.0        1.0        0.0        0.0        0.0
  16500     .0165  1832.87508 76.5521165 -1909.4276 1832.87508 76.5521165 -1909.4276 194603.252 -428073.81 233470.565        0.0
                          0.0        0.0 1870.75079 75.6314059  -1946.382 194607.888 -428073.24 233465.353 1795.11938 2022.01343
                   -3817.1328 1756.32296 1985.97975 -3742.3027 622677.067 -661544.38 38867.3133 .301186847  -.4353133 .134173992
                   1.07968354 -1.9700848 .890401386        0.0    136.679   1.787179   1.496255   15.19607   12.72239    .117608
                        .1E-5    .050484    .022852    .356212    .409118    .991237    .016352    .008603   2191.085   43.82169
                          1.0        1.0        0.0        0.0        0.0
  17000      .017  1630.94329 413.605329 -2044.5487 1630.94329 413.605329 -2044.5487 251956.384 -426313.91 174357.531        0.0
                          0.0        0.0 1665.09554 419.453849 -2084.5498 251960.441 -426312.46 174352.016  1245.6417 2504.00367
                   -3749.6454 1217.33796 2458.15399  -3675.492 678270.297 -600671.44 -77598.853 .348917459  -.4148695 .065998858
                   1.32474275 -1.9287343 .603991651        0.0    136.679   1.787179   1.496255   15.19607   12.72239    .117608
                        .1E-5    .050484    .022852    .356212    .409118    .991237    .016352    .008603   2191.085   43.82169
                          1.0        1.0        0.0        0.0        0.0
  17500     .0175  1388.84924 740.474509 -2129.3232 1388.84924 740.474509 -2129.3232 303105.517 -414056.75 110951.233        0.0
                          0.0        0.0 1418.44023 752.948483 -2171.3881 303108.891 -414054.45 110945.554 665.491745 2924.33657
                   -3589.8283 648.374731 2869.79775 -3518.1725 717162.266 -525007.98 -192154.28 .388056736  -.3842098 -.00380076
                   1.53718224 -1.8398919 .302709586        0.0    136.679   1.787179   1.496255   15.19607   12.72239    .117608
                        .1E-5    .050484    .022852    .356212    .409118    .991237    .016352    .008603   2191.085   43.82169
                          1.0        1.0        0.0        0.0        0.0
  18000      .018  1112.55676 1049.11057 -2161.6668 1112.55676 1049.11057 -2161.6668 346791.178 -391604.13 44812.9518        0.0
                          0.0        0.0 1136.85867 1067.90279 -2204.7604 346793.795 -391601.04 44807.2448 68.9558868  3272.6632
                   -3341.6191  63.446186 3210.77733 -3274.2235 738395.311 -436417.09 -301978.23 .417641584 -.34408993 -.07350801
                   1.71177138 -1.7057455 -.00602633        0.0    136.679   1.787179   1.496255   15.19607   12.72239    .117608
                        .1E-5    .050484    .022852    .356212    .409118    .991237    .016352    .008603   2191.085   43.82169
                          1.0        1.0        0.0        0.0        0.0
  18500     .0185  808.870597 1331.91374 -2140.7844 808.870597 1331.91374 -2140.7844 381937.697 -359508.92 -22428.775        0.0
                          0.0        0.0 827.283728 1356.56128 -2183.8448 381939.485 -359505.12 -22434.368 -529.27756  3540.4061
                   -3011.1285 -523.04314  3472.6981  -2949.655  741446.62 -337080.15 -404366.47 .436940663 -.29549736 -.14140362
                   1.84421112 -1.5295976  -.3146132        0.0    136.679   1.787179   1.496255   15.19607   12.72239    .117608
                        .1E-5    .050484    .022852    .356212    .409118    .991237    .016352    .008603   2191.085   43.82169
                          1.0        1.0        0.0        0.0        0.0
  19000      .019  485.269949 1581.92067 -2067.1907 485.269949 1581.92067 -2067.1907 407679.647 -318561.41 -89118.234        0.0
                          0.0        0.0 497.336996 1611.81718 -2109.1542 407680.557 -318556.98 -89123.572 -1114.4802 3720.97134
                   -2606.4912 -1096.6507 3649.11133 -2552.4606 726241.056 -229443.18 -496797.88  .44548341 -.23962842 -.20581889
                   1.93124011 -1.3157862  -.6154537        0.0    136.679   1.787179   1.496255   15.19607   12.72239    .117608
                        .1E-5    .050484    .022852    .356212    .409118    .991237    .016352    .008603   2191.085   43.82169
                          1.0        1.0        0.0        0.0        0.0
  19500     .0195   149.71434 1792.97596 -1942.6909  149.71434 1792.97596 -1942.6909 423383.157 -269769.86  -153613.3        0.0
                          0.0        0.0 155.145065 1827.38451 -1982.5303  423383.18 -269764.92 -153618.26 -1672.2394 3809.91479
                   -2137.6753 -1643.2616 3735.66684 -2092.4052 693153.015 -116156.56 -576996.46 .443054797 -.17785961 -.26516568
                   1.97071557 -1.0695758 -.90113987        0.0    136.679   1.787179   1.496255   15.19607   12.72239    .117608
                        .1E-5    .050484    .022852    .356212    .409118    .991237    .016352    .008603   2191.085   43.82169
                          1.0        1.0        0.0        0.0        0.0
  20000       .02  -189.52622 1959.88123 -1770.3583 -189.52622 1959.88123 -1770.3583 428661.577 -214335.68  -214325.9        0.0
                          0.0        0.0  -190.8674 1997.95546 -1807.0897 428660.705 -214330.35 -214330.35 -2188.8229  3805.0452
                   -1616.2223 -2149.4075 3730.23956 -1580.8321 642997.255 -9.7761452 -642987.48 .429717513  -.1117109 -.31798312
                   1.96166551 -.79702883 -1.1646367        0.0    136.679   1.787179   1.496255   15.19607   12.72239    .117608
                        .1E-5    .050484    .022852    .356212    .409118    .991237    .016352    .008603   2191.085   43.82169
                          1.0        1.0        0.0        0.0        0.0
  20500     .0205  -524.09737 2078.53001 -1554.4316 -524.09737 2078.53001 -1554.4316  423384.93 -153623.84 -269761.09        0.0
                          0.0        0.0   -532.179 2119.33127 -1587.1515  423383.18 -153618.26 -269764.92 -2651.5103 3706.48281
                   -1054.9725 -2602.6274 3632.96158 -1030.3342  577008.77 116137.248 -693146.02 .405799471 -.04281135 -.36297073
                   1.90431275 -.50485631 -1.3994565        0.0    136.679   1.787179   1.496255   15.19607   12.72239    .117608
                        .1E-5    .050484    .022852    .356212    .409118    .991237    .016352    .008603   2191.085   43.82169
                          1.0        1.0        0.0        0.0        0.0
  21000      .021  -845.76495 2145.99647 -1300.2321 -845.76495 2145.99647 -1300.2321  407683.13 -89129.275 -318553.86        0.0
                          0.0        0.0 -860.38761 2188.52068  -1328.134 407680.557 -89123.572 -318556.98 -3048.9083 3516.65468
                   -467.74639 -2991.7614 3446.22858 -454.46715 496812.405 229424.581 -726236.99 .371889267 .027142126 -.39902116
                   1.80006942 -.20025272 -1.5998168        0.0    136.679   1.787179   1.496255   15.19607   12.72239    .117608
[...]
                        .1E-5    .050484    .022852    .356212    .409118    .991237    .016352    .008603   2191.085   43.82169
                          1.0        1.0        0.0        0.0        0.0
 113000      .113  -255624.04 -164222.98 419847.013 -255624.04 -164222.98 419847.013 -255624.04 -164222.98 419847.015        0.0
                          0.0        0.0 -388763.83 -94524.123 483287.951 -251960.44 -174352.02 426312.457  -294239.7 -577812.07
                   872051.778 -91401.061 -584069.99  675471.05 -91401.063 -584069.99 675471.053  -710.7644 38.1499029 672.614498
                   -269.46213 111.252172 158.209963        0.0    136.679   1.787179   1.496255   15.19607   12.72239    .117608
                        .1E-5    .050484    .022852    .356212    .409118    .991237    .016352    .008603   2191.085   43.82169
                          1.0        1.0        0.0        0.0        0.0
 113500     .1135  -235917.44 -214429.73 450347.162 -235917.44 -214429.73 450347.162 -235917.44 -214429.73 450347.163        0.0
                          0.0        0.0 -354858.15  -178525.7 533383.848 -194607.89 -233465.35  428073.24 -176332.45 -711909.55
                   888241.997  -21487.71 -664776.89 686264.599  -21487.71 -664776.89   686264.6 -237.77994 -209.35725 447.137192
                   -306.02953  84.538374 221.491122        0.0    136.679   1.787179   1.496255   15.19607   12.72239    .117608
                        .1E-5    .050484    .022852    .356212    .409118    .991237    .016352    .008603   2191.085   43.82169
                          1.0        1.0        0.0        0.0        0.0
 114000      .114   -123639.1 -299296.51 422935.608  -123639.1 -299296.51 422935.608 -123639.09 -299296.51 422935.608        0.0
                          0.0        0.0 -279196.99 -263051.66 542248.653 -132463.44   -286830.  419293.44 -16145.324 -805300.32
                   821445.641 175657.416 -722232.12 546574.704 175657.419 -722232.12 546574.702 892.034261 -584.89421 -307.14006
                   -341.70508 51.3962302 290.308846        0.0    136.679   1.787179   1.496255   15.19607   12.72239    .117608
                        .1E-5    .050484    .022852    .356212    .409118    .991237    .016352    .008603   2191.085   43.82169
                          1.0        1.0        0.0        0.0        0.0
 114500     .1145  -33699.132 -351714.57 385413.697 -33699.132 -351714.57 385413.697 -33699.131 -351714.57 385413.696        0.0
                          0.0        0.0 43360.9439 -413790.02 370429.072 -67057.308 -333131.94 400189.244 457150.961 -784219.09
                   327068.128 318015.433 -737128.26 419112.829 318015.435 -737128.26 419112.827 598.415399  -385.5629  -212.8525
                   -351.68613 4.55270935 347.133401        0.0    136.679   1.787179   1.496255   15.19607   12.72239    .117608
                        .1E-5    .050484    .022852    .356212    .409118    .991237    .016352    .008603   2191.085   43.82169
                          1.0        1.0        0.0        0.0        0.0
 115000      .115   62242.802 -396689.01 334446.207  62242.802 -396689.01 334446.207 62242.8025 -396689.01 334446.207        0.0
                          0.0        0.0 187699.932  -450547.5 262847.571 .127058E-4 -371231.06  371231.06 638247.435 -713395.07
                   75147.6386 458931.811 -731135.22 272203.405 458931.812 -731135.22 272203.405 238.513182 -194.49004 -44.023143
                   -351.30966 -48.138666 399.448314        0.0    136.679   1.787179   1.496255   15.19607   12.72239    .117608
                        .1E-5    .050484    .022852    .356212    .409118    .991237    .016352    .008603   2191.085   43.82169
                          1.0        1.0        0.0        0.0        0.0
 115500     .1155   38527.631 -379978.86 341451.229  38527.631 -379978.86 341451.229 38527.6294 -379978.86  341451.23        0.0
                          0.0        0.0 197209.264 -432155.89 234946.626 67057.3081 -400189.24 333131.936 629365.156 -667102.52
                   37737.3619 418506.492 -721430.09 302923.598  418506.49 -721430.09 302923.601 -803.78646 133.822816 669.963646
                   -333.22744  -107.1324 440.359808        0.0    136.679   1.787179   1.496255   15.19607   12.72239    .117608
                        .1E-5    .050484    .022852    .356212    .409118    .991237    .016352    .008603   2191.085   43.82169
                          1.0        1.0        0.0        0.0        0.0
 116000      .116  110029.037 -401974.89 291945.853 110029.037 -401974.89 291945.853 110029.036 -401974.89 291945.855        0.0
                          0.0        0.0 -25586.182 -332387.57 357973.756 132463.443 -419293.44 286829.997 306801.391 -690361.33
                   383559.938 512003.928 -693920.74 181916.816 512003.927 -693920.75 181916.819 -715.64194 -7.0711297 722.713073
                   -318.73106 -163.95567 482.686708        0.0    136.679   1.787179   1.496255   15.19607   12.72239    .117608
                        .1E-5    .050484    .022852    .356212    .409118    .991237    .016352    .008603   2191.085   43.82169
                          1.0        1.0        0.0        0.0        0.0
 116500     .1165  128342.999 -397912.25 269569.253 128342.999 -397912.25 269569.253 128342.998 -397912.25 269569.254        0.0
                          0.0        0.0 -14820.909 -351007.22 365828.126 194607.888 -428073.24 233465.353 336186.308 -716835.34
                   380649.035  526255.25  -667481.5 141226.254  526255.25 -667481.51 141226.255 -384.28895 -214.60421 598.893161
                   -297.99229 -221.79143 519.783707        0.0    136.679   1.787179   1.496255   15.19607   12.72239    .117608
                        .1E-5    .050484    .022852    .356212    .409118    .991237    .016352    .008603   2191.085   43.82169
                          1.0        1.0        0.0        0.0        0.0
 117000      .117  242662.756 -428569.97 185907.213 242662.756 -428569.97 185907.213 242662.757 -428569.97 185907.213        0.0
                          0.0        0.0  84897.293 -390275.13 305377.836 251960.441 -426312.46 174352.016 475172.419 -695652.96
                   220480.543 671232.722 -614477.18 -56755.543 671232.725 -614477.18 -56755.544 605.802088 -552.91411 -52.887983
                   -276.55666 -278.36099  554.91768        0.0    136.679   1.787179   1.496255   15.19607   12.72239    .117608
                        .1E-5    .050484    .022852    .356212    .409118    .991237    .016352    .008603   2191.085   43.82169
                          1.0        1.0        0.0        0.0        0.0
 117500     .1175   327578.98 -429233.29 101654.316  327578.98 -429233.29 101654.316 327578.981  -429233.3 101654.316        0.0
                          0.0        0.0 469888.184 -514401.74 44513.5604 303108.891 -414054.45 110945.554 984289.928  -558915.3
                   -425374.62 756812.274 -530887.61 -225924.66 756812.276 -530887.61 -225924.67 612.910364  -469.0179 -143.89247
                    -236.0969 -338.62459 574.721473        0.0    136.679   1.787179   1.496255   15.19607   12.72239    .117608
                        .1E-5    .050484    .022852    .356212    .409118    .991237    .016352    .008603   2191.085   43.82169
                          1.0        1.0        0.0        0.0        0.0
 118000      .118  462942.541 -439193.58 -23748.966 462942.541 -439193.58 -23748.966 462942.542 -439193.58 -23748.966        0.0
                          0.0        0.0 566662.582 -485759.08   -80903.5 346793.795 -391601.04 44807.2447 .1052422E7 -404855.58
                   -647566.08 902136.117 -415444.61 -486691.51 902136.119 -415444.61 -486691.51 444.042569 -333.51687  -110.5257
                   -186.89868  -396.8331 583.731755        0.0    136.679   1.787179   1.496255   15.19607   12.72239    .117608
                        .1E-5    .050484    .022852    .356212    .409118    .991237    .016352    .008603   2191.085   43.82169
                          1.0        1.0        0.0        0.0        0.0
 118500     .1185   395198.11 -356950.89 -38247.217  395198.11 -356950.89 -38247.217 395198.109 -356950.89 -38247.216        0.0
                          0.0        0.0 532823.843 -401554.75  -131269.1 381939.485 -359505.12 -22434.368 934378.591 -270285.65
                   -664092.94 752149.004 -318703.68 -433445.33 752149.002 -318703.68 -433445.33  -602.2555 16.8830665 585.372434
                   -121.86159  -453.5048 575.366428        0.0    136.679   1.787179   1.496255   15.19607   12.72239    .117608
                        .1E-5    .050484    .022852    .356212    .409118    .991237    .016352    .008603   2191.085   43.82169
                          1.0        1.0        0.0        0.0        0.0
 119000      .119  384296.396 -302218.09 -82078.305 384296.396 -302218.09 -82078.305 384296.395 -302218.09 -82078.304        0.0
                          0.0        0.0 307677.001 -252539.07 -55137.937 407680.557 -318556.98 -89123.572 560216.066 -197401.13
                   -362814.94 686514.488 -220139.79  -466374.7 686514.487 -220139.79  -466374.7 -588.28415 -84.397313 672.681465
                   -64.865429 -499.53883 564.404276        0.0    136.679   1.787179   1.496255   15.19607   12.72239    .117608
                        .1E-5    .050484    .022852    .356212    .409118    .991237    .016352    .008603   2191.085   43.82169
                          1.0        1.0        0.0        0.0        0.0
 119500     .1195  272435.924 -208022.02   -64413.9 272435.924 -208022.02   -64413.9 272435.923 -208022.02 -64413.899        0.0
                          0.0        0.0 197738.187 -178630.85  -19107.34  423383.18 -269764.92 -153618.26 376369.033 -159523.51
                   -216845.53 480457.946 -143608.12 -336849.82 480457.946 -143608.12 -336849.82 -383.95131 -249.18271  633.13402
                   -7.2989506  -538.2292 545.528151        0.0    136.679   1.787179   1.496255   15.19607   12.72239    .117608
                        .1E-5    .050484    .022852    .356212    .409118    .991237    .016352    .008603   2191.085   43.82169
                          1.0        1.0        0.0        0.0        0.0
  % % % % % %   Suspended simulation;  plot data space exhausted;  SPY SPACE is required.   LIMBUF =  840000.
  % % % % % %   Suspended simulation;  plot data space exhausted;  SPY SPACE is required.   LIMBUF =  840000.
  +++  Time-sharing disabled.   Send  user-keyed interrupt to silence alarm.
   Current values.  INDBUF  INDBEG  LIMBUF  MFLUSH  NUMDCD  KCARD1  KCARD2
                    839994      50  840000    1007     230       1     231
Plot timespan now in memory (in sec) = 1.04985997E-01   1.19985000E-01
   ++++  Begin plot-data copy from memory to disk.   MFLUSH, INDBUF, N4, Tbeg,  Tend = 1008  839994       1  -1.00000E+00
1.00000E+19
 120000       .12  390182.908 -205172.25 -185010.66 390182.908 -205172.25 -185010.66 390182.909 -205172.25 -185010.66        0.0
                          0.0        0.0  214423.07  -150899.3 -63523.773 428660.705 -214330.35 -214330.35 365322.367 -87375.524
                   -277946.84 595355.159 -20161.595 -575193.56 595355.162 -20161.596 -575193.57 566.977999   -578.313 11.3349987
                   42.7675563 -567.34546 524.577905        0.0    136.679   1.787179   1.496255   15.19607   12.72239    .117608
                        .1E-5    .050484    .022852    .356212    .409118    .991237    .016352    .008603   2191.085   43.82169
                          1.0        1.0        0.0        0.0        0.0

Extrema of output variables follow.   Order and column positioning are the same as for the preceding time-step loop output.
Variable maxima :  644340.805 515631.627 570584.507 644340.805 515631.627 570584.507 644340.805 515631.627  570584.51        0.0
                          0.0        0.0 .1006295E7 637724.221 838838.778 428660.705 428660.703 428660.703 .1460982E7 903694.305
                   .1738906E7 .1046618E7 790491.343 .1232723E7 .1046618E7 790491.342 .1232723E7 1951.45359 455.643693 1604.14676
                   454.613759 150.322588 677.769966        0.0    136.679   1.787179   1.496255   15.19607   12.72239    .117608
                        .1E-5    .050484    .022852    .356212    .409118    .991237    .016352    .008603   2191.085   43.82169
                          1.0        1.0        0.0        0.0        0.0
Times of maxima :     .059681    .066982    .051904    .059681    .066982    .051904    .059681    .066982    .051904        0.0
                          0.0        0.0    .059813    .067404    .052454        0.0    .006667    .113333    .056825    .066048
                      .052448    .078266    .084637     .05189    .078266    .084637     .05189    .062058    .072624    .057601
                      .084783    .111551     .05842        0.0        0.0        0.0        0.0        0.0        0.0        0.0
                          0.0        0.0        0.0        0.0        0.0        0.0        0.0        0.0        0.0        0.0
                          0.0        0.0        0.0        0.0        0.0
Variable minima :  -663370.43 -510794.23 -554502.79 -663370.43 -510794.23 -554502.79 -663370.44 -510794.23 -554502.79        0.0
                          0.0        0.0 -996400.88 -638802.73 -789945.61 -428660.71  -428660.7  -428660.7  -.15176E7 -973535.36
                    -.16574E7 -997746.68 -786945.97 -.108199E7 -997746.68 -786945.98 -.108199E7  -1844.544 -1099.2332 -962.09858
                   -352.99959 -722.70407 -182.64083        0.0    136.679   1.787179   1.496255   15.19607   12.72239    .117608
                        .1E-5    .050484    .022852    .356212    .409118    .991237    .016352    .008603   2191.085   43.82169
                          1.0        1.0        0.0        0.0        0.0
Times of minima :     .051882    .056356    .063348    .051882    .056356    .063348    .051882    .056356    .063348        0.0
                          0.0        0.0     .07033    .056285    .062764        .01    .016667    .103333    .067443    .055437
                      .062756    .088817    .055039    .062542    .088817    .055039    .062542    .057567    .062029    .068188
                      .114653    .061534    .108452        0.0        0.0        0.0        0.0        0.0        0.0        0.0
                          0.0        0.0        0.0        0.0        0.0        0.0        0.0        0.0        0.0        0.0
                          0.0        0.0        0.0        0.0        0.0

Blank card terminating all plot cards.            |BLANK PLOT

Memory storage figures for the preceding, now-completed data case.  -------------------------------  Present   Program
A value of  "-9999"  indicates that no figure is available.         28-Feb-22  19:45:08              figure     limit  (name)
     Size List 1.   Number of electric network nodes.                                                   37      6000  (LBUS)
     Size List 2.   Number of electric network branches.                                                39     10000  (LBRNCH)
     Size List 3.   Number of data values in R, L, C tables.                                            45    192000  (LDATA)
     Size List 4.   Number of electric network sources.                                                  3       900  (LEXCT)
     Size List 5.   Storage for [Y] and triangularized [Y].   No. times =    3     Factors =    66     189    420000  (LYMAT)
     Size List 6.   Number of entries in switch table.                  No. flops = 18                  21      1200  (LSWTCH)
     Size List 7.   Number of distinct ALPHANUMERIC data names plus program SPY variables.              25     15000  (LSIZE7)
     Size List 8.   History points of distributed lines.                                              1977    120000  (LPAST)
     Size List 9.   Number of nonlinear elements.                                                        0      2250  (LNONL)
     Size List 10.  Points of nonlinear characteristics.                                                 0      3800  (LCHAR)
     Size List 11.  Number of Type-59 S.M. outputs.                                                      0       720  (LSMOUT)
     Size List 12.  Total number of EMTP output variables.                                              55      2000  (LSIZ12)
     Size List 13.  Working space for batch/SPY plotting.                                            -9999     72800  (LSIZ13)
     Size List 14.  S.M./U.M. connections to TACS.                                                   -9999       510  (LBSTAC)
     Size List 15.  Character storage in bytes for MODELS.                                            3298     90000  (LCTACS)
     Size List 16.  Total number of Type-59 S.M. masses.                                                 0       800  (LIMASS)
     Size List 17.  Number of Type-59 Synchronous machines.                                              0        90  (LSYN)
     Size List 18.  Branch and switch power/energy outputs.                                              0       254  (MAXPE)
     Size List 19.  Total floating-point TACS table space.                                              23    120000  (LTACST)
     Size List 20.  Non-copied recursive convolution data.                                               0    100000  (LFSEM)
     Size List 21.  Total modal/phase [T] matrix storage.                                                9      3000  (LFD)
     Size List 22.  Total recursive convolution history.                                                 0     15000  (LHIST)
     Size List 23.  Giant vectors for renumbering, phasors;  also extrema accumulation.                  93    192000  (LSIZ23)
     Size List 24.  Peak phases of compensation for data.                                                0       120  (LCOMP)
     Size List 25.  Total table space for all U.M usage.                                             -9999     45000  (LSPCUM)
     Size List 26.  Square of max number of coupled phases.                                              9    260000  (LSIZ26)
     Size List 27.  Maximum number of MODELS top variables.                                             44       600  (LSIZ27)
     Size List 28.  MODELS.  Total work space is divided into INTEGER and REAL.  1st, REAL:           1780    210000  (LRTACS)
                             Second  and last,  statistics for INTEGER work space.                    6838         0  (LITACS)
     Size List 29.  RAM disk used by "TAPSAV" table saving (limit is "LABCOM" size LTLABL).          -9999       600  (LSIZ29)
     Size List 30.  Taku Noda frequency-dependent circuits.                                              0        19  (LSIZ30)
Timing figures characterizing central processor (CP) solution speed.  ----------------------------   CP sec  Wait sec  Real sec
     Data input time (through blank card ending branches) ....                                       0.016     0.000     0.016
     Node renumbering and phasor solution  ....                                                      0.000     0.000     0.000
     After phasor solution, but before time-step loop  ....                                          0.000     0.000     0.000
     Integration of equations (time-step loop)  ....                                                 1.000     0.000     1.000
     Plotting or STATISTICS termination overlays ....                                                0.000     0.000     0.000
                                                                                                    ---------------------------
                                                                                          Totals      1.016     0.000     1.016

