   ---   236   cards of disk file read into card cache cells  1   onward.
 Comment card is ignored.      |C   LBUS  LBRNCH   LDATA   LEXCT   LYMAT  LSWTCH
 Limit CIDEAL cards =   200    |CARDS        200 { Limit of CIDEAL will be 2 mor
 1st card (Lists  1-10).       |    6000   10000  192000     900  420000    120
 Comment card is ignored.      |C LSMOUT  LSIZ12  LSIZ13  LBSTAC  LCTACS  LIMASS
 2nd card (Lists 11-20).       |     720    2000   72800     510   90000     80
 Comment card is ignored.      |C    LFD   LHIST  LSIZ23   NCOMP  LSPCUM  LSIZ26
 3rd card (Lists 21-30).       |    3000   15000  192000     120   45000  26000
 4th card (Lists 31-32).       |     200     300     { Optional card for Lists
 Comment card is ignored.      |C  LWORK  LMARTI
 Supplemental offsets.         |  840000     742
 <===> Done with  "/"-card sorting by data class.    Remember that the source file appears different from interpreted input data.
Alternative Transients Program (ATP),  GNU Linux or DOS.  All rights reserved by Can/Am user group of Portland, Oregon, USA.
 Date (dd-mth-yy) and time of day (hh.mm.ss) = 28-Feb-22  19:03:03   Name of disk plot file is  atp\bdfinalisima\energizacion14.pl4
Consult the 860-page ATP Rule Book of the Can/Am EMTP User Group in Portland,  Oregon, USA.  Source code date is 12 August 2008.
Total size of LABCOM tables = 10913436 INTEGER words.  31 VARDIM  List Sizes follow:  6002  10K  192K  900  420K  1200  15K
  120K  2250  3800  720  2K  72800  510  90K  800  90  254  120K  100K  3K  15K  192K  120  45K  260K  600  210K  1100  60  200
--------------------------------------------------+--------------------------------------------------------------------------------
Descriptive interpretation of input data cards.   |  Input data card images are shown below, all 80 columns, character by character
                                                  0         1         2         3         4         5         6         7         8
                                                  012345678901234567890123456789012345678901234567890123456789012345678901234567890
--------------------------------------------------+--------------------------------------------------------------------------------
Comment card.   NUMDCD = 1.                       |C data:D:\ATP\BDFINALISIMA\ENERGIZACION14.ATP
Marker card preceding new EMTP data case.         |BEGIN NEW DATA CASE
Comment card.   NUMDCD = 3.                       |C --------------------------------------------------------
Comment card.   NUMDCD = 4.                       |C Generated by ATPDRAW  febrero, lunes 28, 2022
Comment card.   NUMDCD = 5.                       |C A Bonneville Power Administration program
Comment card.   NUMDCD = 6.                       |C by H. K. Høidalen at SEfAS/NTNU - NORWAY 1994-2016
Comment card.   NUMDCD = 7.                       |C --------------------------------------------------------
Comment card.   NUMDCD = 8.                       |C  dT  >< Tmax >< Xopt >< Copt ><Epsiln>
Misc. data.     1.000E-06   1.200E-01   5.000E+01 |   1.E-6     .12     50.
Misc. data.    500    1  0  1  1  0  0  0  0  0   |     500       1       0       1       1       0       0       0       0
  ///  Warning.  Nonzero XOPT or COPT differs from the power frequency of  6.00000000E+01  Hz.   Did the user really want this?
No TACS data,  but MODELS data begins (next).     |MODELS
      Another ordinary MODELS data card.          |OUTPUT
      Another ordinary MODELS data card.          |  AnVol
      Another ordinary MODELS data card.          |  LONG
      Another ordinary MODELS data card.          |  R0F
      Another ordinary MODELS data card.          |  R1F
      Another ordinary MODELS data card.          |  X0F
      Another ordinary MODELS data card.          |  X1F
      Another ordinary MODELS data card.          |  RDIVX
      Another ordinary MODELS data card.          |  RINSER
      Another ordinary MODELS data card.          |  CLOSE1
      Another ordinary MODELS data card.          |  RPpos
      Another ordinary MODELS data card.          |  RPcero
      Another ordinary MODELS data card.          |  LPpos
      Another ordinary MODELS data card.          |  LPcero
      Another ordinary MODELS data card.          |  CPpos
      Another ordinary MODELS data card.          |  CPcero
      Another ordinary MODELS data card.          |  Xp
      Another ordinary MODELS data card.          |  CR
      Another ordinary MODELS data card.          |  SIMET
      Another ordinary MODELS data card.          |  ENC1
      Another ordinary MODELS data card.          |  ENC2
      Another ordinary MODELS data card.          |  ENC1AS
      Another ordinary MODELS data card.          |  ENC2AS
      Another ordinary MODELS data card.          |MODEL DEFAULT
      Another ordinary MODELS data card.          |DATA AnVol,LONG,R0F,R1F,X0F,X1F,RDIVX,RINSER,CLOSE1,RPpos,RPcero,LPpos,LPcero
      Another ordinary MODELS data card.          |OUTPUT o1,o2,o3, o4, o5, o6, o7, o8, o9, o10, o11, o12, o13
      Another ordinary MODELS data card.          |VAR o1,o2,o3, o4, o5, o6, o7, o8, o9, o10, o11, o12, o13
      Another ordinary MODELS data card.          |INIT
      Another ordinary MODELS data card.          |  o1:=AnVol
      Another ordinary MODELS data card.          |  o2:=LONG
      Another ordinary MODELS data card.          |  o3:=R0F
      Another ordinary MODELS data card.          |  o4:=R1F
      Another ordinary MODELS data card.          |  o5:=X0F
      Another ordinary MODELS data card.          |  O6:=X1F
      Another ordinary MODELS data card.          |  o7:=RDIVX
      Another ordinary MODELS data card.          |  o8:=RINSER
      Another ordinary MODELS data card.          |  o9:=CLOSE1
      Another ordinary MODELS data card.          |  o10:=RPpos
      Another ordinary MODELS data card.          |  o11:=RPcero
      Another ordinary MODELS data card.          |  o12:=LPpos
      Another ordinary MODELS data card.          |  o13:=LPcero
      Another ordinary MODELS data card.          |
      Another ordinary MODELS data card.          |ENDINIT
      Another ordinary MODELS data card.          |EXEC
      Another ordinary MODELS data card.          |ENDEXEC
      Another ordinary MODELS data card.          |ENDMODEL
      Another ordinary MODELS data card.          |MODEL DEFAULT1
      Another ordinary MODELS data card.          |DATA CPpos,CPcero,Xp,CR,SIMET,ENC1,ENC2,ENC1AS,ENC2AS
      Another ordinary MODELS data card.          |OUTPUT o1, o2, o3, o4, o5, o6, o7, o8, o9
      Another ordinary MODELS data card.          |VAR o1, o2, o3, o4, o5, o6, o7, o8, o9
      Another ordinary MODELS data card.          |INIT
      Another ordinary MODELS data card.          |  o1:=CPpos
      Another ordinary MODELS data card.          |  o2:=CPcero
      Another ordinary MODELS data card.          |  o3:=Xp
      Another ordinary MODELS data card.          |  o4:=CR
      Another ordinary MODELS data card.          |  o5:=SIMET
      Another ordinary MODELS data card.          |  o6:=ENC1
      Another ordinary MODELS data card.          |  o7:=ENC2
      Another ordinary MODELS data card.          |  o8:=ENC1AS
      Another ordinary MODELS data card.          |  o9:=ENC2AS
      Another ordinary MODELS data card.          |
      Another ordinary MODELS data card.          |ENDINIT
      Another ordinary MODELS data card.          |EXEC
      Another ordinary MODELS data card.          |ENDEXEC
      Another ordinary MODELS data card.          |ENDMODEL
      Another ordinary MODELS data card.          |USE DEFAULT AS DEFAULT
      Another ordinary MODELS data card.          |DATA
      Another ordinary MODELS data card.          |  AnVol:=      0.0
      Another ordinary MODELS data card.          |  LONG:= 145.4194
      Another ordinary MODELS data card.          |  R0F:= 1.450566
      Another ordinary MODELS data card.          |  R1F:= 1.566087
      Another ordinary MODELS data card.          |  X0F:= 8.622515
      Another ordinary MODELS data card.          |  X1F:= 9.309197
      Another ordinary MODELS data card.          |  RDIVX:=  0.16823
      Another ordinary MODELS data card.          |  RINSER:=     360.
      Another ordinary MODELS data card.          |  CLOSE1:= 0.047195
      Another ordinary MODELS data card.          |  RPpos:= 0.018595
      Another ordinary MODELS data card.          |  RPcero:= 0.248656
      Another ordinary MODELS data card.          |  LPpos:=  0.44499
      Another ordinary MODELS data card.          |  LPcero:= 0.933046
      Another ordinary MODELS data card.          |OUTPUT
      Another ordinary MODELS data card.          |  AnVol:=o1
      Another ordinary MODELS data card.          |  LONG:=o2
      Another ordinary MODELS data card.          |  R0F:=o3
      Another ordinary MODELS data card.          |  R1F:=o4
      Another ordinary MODELS data card.          |  X0F:=o5
      Another ordinary MODELS data card.          |  X1F:=o6
      Another ordinary MODELS data card.          |  RDIVX:=o7
      Another ordinary MODELS data card.          |  RINSER:=o8
      Another ordinary MODELS data card.          |  CLOSE1:=o9
      Another ordinary MODELS data card.          |  RPpos:=o10
      Another ordinary MODELS data card.          |  RPcero:=o11
      Another ordinary MODELS data card.          |  LPpos:=o12
      Another ordinary MODELS data card.          |  LPcero:=o13
      Another ordinary MODELS data card.          |ENDUSE
      Another ordinary MODELS data card.          |USE DEFAULT1 AS DEF
      Another ordinary MODELS data card.          |DATA
      Another ordinary MODELS data card.          |  CPpos:= 0.008579
      Another ordinary MODELS data card.          |  CPcero:= 0.005624
      Another ordinary MODELS data card.          |  Xp:= 3925.572
      Another ordinary MODELS data card.          |  CR:= 78.51144
      Another ordinary MODELS data card.          |  SIMET:=       1.
      Another ordinary MODELS data card.          |  ENC1:=      0.0
      Another ordinary MODELS data card.          |  ENC2:=       1.
      Another ordinary MODELS data card.          |  ENC1AS:=      0.0
      Another ordinary MODELS data card.          |  ENC2AS:=      0.0
      Another ordinary MODELS data card.          |OUTPUT
      Another ordinary MODELS data card.          |  CPpos:=o1
      Another ordinary MODELS data card.          |  CPcero:=o2
      Another ordinary MODELS data card.          |  Xp:=o3
      Another ordinary MODELS data card.          |  CR:=o4
      Another ordinary MODELS data card.          |  SIMET:=o5
      Another ordinary MODELS data card.          |  ENC1:=o6
      Another ordinary MODELS data card.          |  ENC2:=o7
      Another ordinary MODELS data card.          |  ENC1AS:=o8
      Another ordinary MODELS data card.          |  ENC2AS:=o9
      Another ordinary MODELS data card.          |ENDUSE
      Another ordinary MODELS data card.          |RECORD
      Another ordinary MODELS data card.          |  DEFAULT.o1 AS AnVOL
      Another ordinary MODELS data card.          |  DEFAULT.o2 AS LONG
      Another ordinary MODELS data card.          |  DEFAULT.o3 AS R0F
      Another ordinary MODELS data card.          |  DEFAULT.o4 AS R1F
      Another ordinary MODELS data card.          |  DEFAULT.o5 AS X0F
      Another ordinary MODELS data card.          |  DEFAULT.o6 AS X1F
      Another ordinary MODELS data card.          |  DEFAULT.o7 AS RDIVX
      Another ordinary MODELS data card.          |  DEFAULT.o8 AS RINSER
      Another ordinary MODELS data card.          |  DEFAULT.o9 AS CLOSE1
      Another ordinary MODELS data card.          |  DEFAULT.o10 AS RPpos
      Another ordinary MODELS data card.          |  DEFAULT.o11 AS RPcero
      Another ordinary MODELS data card.          |  DEFAULT.o12 AS LPpos
      Another ordinary MODELS data card.          |  DEFAULT.o13 AS LPcero
      Another ordinary MODELS data card.          |  DEF.o1 AS CPpos
      Another ordinary MODELS data card.          |  DEF.o2 AS CPcero
      Another ordinary MODELS data card.          |  DEF.o3 AS Xp
      Another ordinary MODELS data card.          |  DEF.o4 AS CR
      Another ordinary MODELS data card.          |  DEF.o5 AS SIMET
      Another ordinary MODELS data card.          |  DEF.o6 AS ENC1
      Another ordinary MODELS data card.          |  DEF.o7 AS ENC2
      Another ordinary MODELS data card.          |  DEF.o8 AS ENC1AS
      Another ordinary MODELS data card.          |  DEF.o9 AS ENC2AS
Termination of data for Laurent Dube`s MODELS.    |ENDMODELS
Comment card.   NUMDCD = 153.                     |C        1         2         3         4         5         6         7         8
Comment card.   NUMDCD = 154.                     |C 345678901234567890123456789012345678901234567890123456789012345678901234567890
Optional blank card follows last of MODELS data.  |BLANK MODELS
Comment card.   NUMDCD = 156.                     |C < n1 >< n2 ><ref1><ref2>< R  >< L  >< C  >
Comment card.   NUMDCD = 157.                     |C < n1 >< n2 ><ref1><ref2>< R  >< A  >< B  ><Leng><><>0
1st of coupled R-L.   1.45060E+00  2.74463E-02    |51IFUENASB1A              1.45068.6225147761
2nd coil. 1.566E+00 2.963E-02 0.000E+00 0.000E+00 |52IFUENBSB1B              1.56619.3091971598
Zca, Zcc=-3.850E-02-7.286E-04 1.528E+00 2.890E-02 |53IFUENCSB1C
Series R-L-C.   1.000E+09  0.000E+00  0.000E+00   |  SB1A                      1.E9                                               0
Series R-L-C.   1.000E+09  0.000E+00  0.000E+00   |  SB1B                      1.E9                                               0
Series R-L-C.   1.000E+09  0.000E+00  0.000E+00   |  SB1C                      1.E9                                               0
Series R-L-C.   1.000E+09  0.000E+00  0.000E+00   |  RSNSHA                    1.E9                                               0
Series R-L-C.   1.000E+09  0.000E+00  0.000E+00   |  RSNSHB                    1.E9                                               0
Series R-L-C.   1.000E+09  0.000E+00  0.000E+00   |  RSNSHC                    1.E9                                               0
Series R-L-C.   3.926E+01  6.248E+00  0.000E+00   |  RSNNHA                  39.2561962.8                                         0
Series R-L-C.   3.926E+01  6.248E+00  0.000E+00   |  RSNNHB                  39.2561962.8                                         0
Series R-L-C.   3.926E+01  6.248E+00  0.000E+00   |  RSNNHC                  39.2561962.8                                         0
Series R-L-C.   1.000E+09  0.000E+00  0.000E+00   |  SE2A                      1.E9                                               0
Series R-L-C.   1.000E+09  0.000E+00  0.000E+00   |  SE2B                      1.E9                                               0
Series R-L-C.   1.000E+09  0.000E+00  0.000E+00   |  SE2C                      1.E9                                               0
Series R-L-C.   2.500E+02  0.000E+00  3.000E-10   |  X0001B                    250.       .0003                                   0
Series R-L-C.   2.500E+02  0.000E+00  3.000E-10   |  X0002B                    250.       .0003                                   0
Series R-L-C.   1.000E-06  0.000E+00  0.000E+00   |  X0001ALN1A               1.E-6                                               0
Series R-L-C.   1.000E-06  0.000E+00  0.000E+00   |  SB1A  X0002A             1.E-6                                               0
Series R-L-C.   1.000E-06  0.000E+00  0.000E+00   |  X0001BLN1B               1.E-6                                               0
Series R-L-C.   1.000E-06  0.000E+00  0.000E+00   |  SB1B  X0002B             1.E-6                                               0
Series R-L-C.   1.000E-06  0.000E+00  0.000E+00   |  X0001CLN1C               1.E-6                                               0
Series R-L-C.   1.000E-06  0.000E+00  0.000E+00   |  SB1C  X0002C             1.E-6                                               0
Series R-L-C.   3.600E+02  0.000E+00  0.000E+00   |  XX0005X0002A              360.                                               0
Series R-L-C.   3.600E+02  0.000E+00  0.000E+00   |  XX0003X0002B              360.                                               0
Series R-L-C.   3.600E+02  0.000E+00  0.000E+00   |  XX0004X0002C              360.                                               0
Series R-L-C.   2.500E+02  0.000E+00  3.000E-10   |  X0001A                    250.       .0003                                   0
Series R-L-C.   1.000E+06  0.000E+00  0.000E+00   |  X0001AX0002A              1.E6                                               0
Series R-L-C.   1.000E+06  0.000E+00  0.000E+00   |  X0001BX0002B              1.E6                                               0
Series R-L-C.   1.000E+06  0.000E+00  0.000E+00   |  X0001CX0002C              1.E6                                               0
Series R-L-C.   2.500E+02  0.000E+00  3.000E-10   |  X0002C                    250.       .0003                                   0
Series R-L-C.   2.500E+02  0.000E+00  3.000E-10   |  X0002A                    250.       .0003                                   0
Series R-L-C.   2.500E+02  0.000E+00  3.000E-10   |  X0001C                    250.       .0003                                   0
Series R-L-C.   1.250E+02  0.000E+00  6.000E-10   |  X0001AX0002A              125.       .0006                                   0
Series R-L-C.   1.250E+02  0.000E+00  6.000E-10   |  X0001BX0002B              125.       .0006                                   0
Series R-L-C.   1.250E+02  0.000E+00  6.000E-10   |  X0001CX0002C              125.       .0006                                   0
 2.487E-01 9.331E-01 5.620E-03 7.270E+02 5.941E-04|-1LN1A  VFF2A             .24866.93305.00562145.42 0 0                         0
 1.859E-02 4.450E-01 8.580E-03 4.063E+02 5.070E-04|-2LN1B  VFF2B             .01859.44499.00858145.42 0 0                         0
3rd or later transposed distributed phase.        |-3LN1C  VFF2C                                                                  0
Blank card ending branches.  IBR, NTOT = 39  31   |BLANK BRANCH
Comment card.   NUMDCD = 198.                     |C < n 1>< n 2>< Tclose ><Top/Tde ><   Ie   ><Vf/CLOP ><  type  >
Switch.  -1.00E+00  1.00E+01  0.00E+00  0.00E+00  |  LN1A  COMPA        -1.       10.                                             0
Switch.  -1.00E+00  1.00E+01  0.00E+00  0.00E+00  |  LN1B  COMPB        -1.       10.                                             0
Switch.  -1.00E+00  1.00E+01  0.00E+00  0.00E+00  |  LN1C  COMPC        -1.       10.                                             0
Switch.  -1.00E+00  1.00E+01  0.00E+00  0.00E+00  |  VFF2A RSNNHA       -1.       10.                                             0
Switch.  -1.00E+00  1.00E+01  0.00E+00  0.00E+00  |  VFF2B RSNNHB       -1.       10.                                             0
Switch.  -1.00E+00  1.00E+01  0.00E+00  0.00E+00  |  VFF2C RSNNHC       -1.       10.                                             0
Switch.   2.00E+00 -1.00E+00  0.00E+00  0.00E+00  |  VFF2A SE2A          2.       -1.                                             0
Switch.   2.00E+00 -1.00E+00  0.00E+00  0.00E+00  |  VFF2B SE2B          2.       -1.                                             0
Switch.   2.00E+00 -1.00E+00  0.00E+00  0.00E+00  |  VFF2C SE2C          2.       -1.                                             0
Switch.   4.72E-02  1.00E+03  0.00E+00  0.00E+00  |  X0001BXX0003.047194894      1.E3                                             0
Switch.   4.72E-02  1.00E+03  0.00E+00  0.00E+00  |  X0001CXX0004.047194894      1.E3                                             0
Switch.   5.47E-02  1.00E+03  0.00E+00  0.00E+00  |  XX0005X0002A.054694894      1.E3                                             0
Switch.   5.47E-02  1.00E+03  0.00E+00  0.00E+00  |  XX0003X0002B.054694894      1.E3                                             0
Switch.   5.47E-02  1.00E+03  0.00E+00  0.00E+00  |  XX0004X0002C.054694894      1.E3                                             0
Switch.   4.72E-02  1.00E+03  0.00E+00  0.00E+00  |  X0001AXX0005.047194894      1.E3                                             0
Permanently-closed switch used for metering.      |  VFUENAIFUENA                                        MEASURING                1
Permanently-closed switch used for metering.      |  VFUENBIFUENB                                        MEASURING                1
Permanently-closed switch used for metering.      |  VFUENCIFUENC                                        MEASURING                1
Permanently-closed switch used for metering.      |  COMPA RSNSHA                                        MEASURING                1
Permanently-closed switch used for metering.      |  COMPB RSNSHB                                        MEASURING                1
Permanently-closed switch used for metering.      |  COMPC RSNSHC                                        MEASURING                1
Blank card ending switches.   KSWTCH = 21.        |BLANK SWITCH
Comment card.   NUMDCD = 221.                     |C < n 1><>< Ampl.  >< Freq.  ><Phase/T0><   A1   ><   T1   >< TSTART >< TSTOP  >
Source.   4.29E+05  5.00E+01  0.00E+00 -1.00E+00  |14VFUENA  428660.705       50.                                     -1.      100.
Source.   4.29E+05  5.00E+01 -1.20E+02 -1.00E+00  |14VFUENB  428660.705       50.     -120.                           -1.      100.
Source.   4.29E+05  5.00E+01 -2.40E+02 -1.00E+00  |14VFUENC  428660.705       50.     -240.                           -1.      100.
Blank card ends electric sources.  KCONST = 3     |BLANK SOURCE
Pi-equivalent branches of distributed circuits are added to the table of List Size 3 between indices  40   and  45.

Sinusoidal steady-state phasor solution, branch by branch.   All flows are away from a bus,  and the real part,  magnitude,  or  "P"
is printed above the imaginary part,  the angle,  or  "Q".   The first solution frequency  =  5.00000000E+01  Hertz.
  Bus K                        Phasor  node  voltage              Phasor  branch  current               Power flow       Power loss
             Bus M         Rectangular            Polar          Rectangular            Polar            P  and  Q        P  and  Q

 IFUENA                    428660.705       428660.705      .43016068660474  .44587481296595      92196.491591636  .15567374535691
                                  0.0              0.0      .11732916319976       15.2566823      -25147.20090713        0.9253544

            SB1A      428661.12356566  428661.12358612      -.4301606866047  .44587481296595      -92196.33591789
                      -4.188199844485       -0.0005598      -.1173291631998     -164.7433177      25148.126261574

 IFUENB                  -214330.3525       428660.705      -.1134703073616  .44587481296609      92196.491591369  .15567374535751
                      -371231.0601341     -120.0000000      -.4311946639104     -104.7433177      -25147.20090823        0.9253544

            SB1B      -214334.1888703  428661.12358612      .11347030736155  .44587481296609      -92196.33591762
                      -371229.3285227     -120.0005598      .43119466391042       75.2566823      25148.126262671

 IFUENC                  -214330.3525       428660.705      -.3166903792381  .44587481296518      92196.491591438  .15567374535656
                      371231.06013415      120.0000000      .31386550070814      135.2566823      -25147.20090724        0.9253544

            SB1C      -214326.9346954  428661.12358612      .31669037923808  .44587481296518      -92196.33591769
                      371233.51672257      119.9994402      -.3138655007081      -44.7433177      25148.126261676

 SB1A                 428661.12356566  428661.12358612      .42866112357E-3  .42866112359E-3      91.875179437058  91.875179437058
                      -4.188199844485       -0.0005598      -.4188199844E-8       -0.0005598      -.430928012E-19        0.0000000

            TERRA                 0.0              0.0      -.4286611236E-3  .42866112359E-3                  0.0
                                  0.0              0.0      .41881998445E-8      179.9994402                  0.0

 SB1B                 -214334.1888703  428661.12358612      -.2143341889E-3  .42866112359E-3      91.875179437058  91.875179437058
                      -371229.3285227     -120.0005598      -.3712293285E-3     -120.0005598      -.305311332E-15        0.0000000

            TERRA                 0.0              0.0      .21433418887E-3  .42866112359E-3                  0.0
                                  0.0              0.0      .37122932852E-3       59.9994402                  0.0

 SB1C                 -214326.9346954  428661.12358612      -.2143269347E-3  .42866112359E-3      91.875179437058  91.875179437058
                      371233.51672257      119.9994402      .37123351672E-3      119.9994402      .7840950111E-15        0.0000000

            TERRA                 0.0              0.0       .2143269347E-3  .42866112359E-3                  0.0
                                  0.0              0.0      -.3712335167E-3      -60.0005598                  0.0

 RSNSHA               -338.1666539734  3945.9642225778       -.338166654E-6  .39459642226E-5      .00778531682293  .00778531682293
                      3931.4471839266       94.9162427      .39314471839E-5       94.9162427       -.63527471E-21        0.0000000

            TERRA                 0.0              0.0      .33816665397E-6  .39459642226E-5                  0.0
                                  0.0              0.0      -.3931447184E-5      -85.0837573                  0.0

 RSNSHB                3573.816461904  3945.9642225779      .35738164619E-5  .39459642226E-5      .00778531682293  .00778531682293
                       -1672.86267891      -25.0837573      -.1672862679E-5      -25.0837573      .8533856944E-19        0.0000000

            TERRA                 0.0              0.0      -.3573816462E-5  .39459642226E-5                  0.0
                                  0.0              0.0      .16728626789E-5      154.9162427                  0.0

 RSNSHC               -3235.649807931  3945.9642225779      -.3235649808E-5  .39459642226E-5      .00778531682293  .00778531682293
                      -2258.584505017     -145.0837573      -.2258584505E-5     -145.0837573      .6416274575E-19        0.0000000

            TERRA                 0.0              0.0      .32356498079E-5  .39459642226E-5                  0.0
                                  0.0              0.0       .2258584505E-5       34.9162427                  0.0

 RSNNHA               -332.1538897017  3867.8798531426      1.9591452900057  1.9701989551495      76.189692038136  76.189692038136
                      3853.5916171674       94.9263383      .20840742674044        6.0721012      3809.4846019068     3809.4846019

            TERRA                 0.0              0.0      -1.959145290006  1.9701989551495                  0.0
                                  0.0              0.0      -.2084074267404     -173.9278988                  0.0

 RSNNHB               3503.3851811286  3867.8798531426      -.7990865191083  1.9701989551495      76.189692038137  76.189692038137
                      -1639.142102136      -25.0736617       -1.80087330422     -113.9278988      3809.4846019068     3809.4846019

            TERRA                 0.0              0.0      .79908651910831  1.9701989551495                  0.0
                                  0.0              0.0      1.8008733042198       66.0721012                  0.0

 RSNNHC               -3171.231291427  3867.8798531427      -1.160058770897  1.9701989551495      76.189692038137  76.189692038137
                      -2214.449515031     -145.0736617      1.5924658774794      126.0721012      3809.4846019069     3809.4846019

            TERRA                 0.0              0.0      1.1600587708974  1.9701989551495                  0.0
                                  0.0              0.0      -1.592465877479      -53.9278988                  0.0

 X0001B               3573.8164617556  3945.9642226177      .15767152926E-3  .37189836629E-3      .17288549356E-4  .17288549356E-4
                      -1672.862679321      -25.0837573       .3368205512E-3       64.9148927      -.7337488237112       -0.7337488

            TERRA                 0.0              0.0      -.1576715293E-3  .37189836629E-3                  0.0
                                  0.0              0.0      -.3368205512E-3     -115.0851073                  0.0

 X0002B               -214334.1888702  428661.12358569      .03498706395549  .04040035909088      .20402362683368  .20402362683368
                      -371229.3285223     -120.0005598      -.0202013457583      -30.0019098      -8659.031658177    -8659.0316582

            TERRA                 0.0              0.0      -.0349870639555  .04040035909088                  0.0
                                  0.0              0.0       .0202013457583      149.9980902                  0.0

 X0001A               -338.1666535433  3945.9642226177      .43011357320211  .43694462963226      78.558099891596  .95460304682E-7
                      3931.4471840036       94.9162427      .07696053216932       10.1446203      858.49714089288        0.0000000

            LN1A      -338.1666539734  3945.9642225778      -.4301135732021  .43694462963226      -78.55809979614
                      3931.4471839266       94.9162427      -.0769605321693     -169.8553797      -858.4971408929

 SB1A                 428661.12356566  428661.12358612      .42974716052413  .44547587541324      92107.704640712  .99224379824E-7
                      -4.188199844485       -0.0005598      .11732916771479       15.2706786      -25148.12636332        0.0000000

            X0002A    428661.12356523  428661.12358569      -.4297471605241  .44547587541324      -92107.70464061
                      -4.188199961814       -0.0005598      -.1173291677148     -164.7293214      25148.126363317

 X0001B               3573.8164617556  3945.9642226177      -.1484067979618  .43694473226082      78.558635462689   .9546034957E-7
                      -1672.862679321      -25.0837573      -.4109697329113     -109.8553452      858.49729521477        0.0000000

            LN1B       3573.816461904  3945.9642225779       .1484067979618  .43694473226082      -78.55863536723
                       -1672.86267891      -25.0837573      .41096973291133       70.1446548      -858.4972952148

 SB1B                 -214334.1888703  428661.12358612      -.1132430043072  .44543037899283      92097.774172546  .99204115145E-7
                      -371229.3285227     -120.0005598      -.4307948984206     -104.7281286       -25147.4753368        0.0000000

            X0002B    -214334.1888702  428661.12358569      .11324300430715  .44543037899283      -92097.77417245
                      -371229.3285223     -120.0005598      .43079489842057       75.2718714      25147.475336797

 X0001C               -3235.649808212  3945.9642226177      -.2817068889271  .43694463455904      78.558931498525  .95460306826E-7
                      -2258.584504683     -145.0837573      .33400874599465      130.1446757      858.49707455608              0.0

            LN1C      -3235.649807931  3945.9642225779      .28170688892715  .43694463455904      -78.55893140306
                      -2258.584505017     -145.0837573      -.3340087459947      -49.8553243      -858.4970745561

 SB1C                 -214326.9346954  428661.12358612      -.3164750523865    .445469146292      92106.617085125  .99221381333E-7
                      371233.51672257      119.9994402      .31350646167994      135.2699864      -25146.63385668              0.0

            X0002C    -214326.9346951  428661.12358569      .31647505238652    .445469146292      -92106.61708503
                      371233.51672225      119.9994402      -.3135064616799      -44.7300136      25146.633856677

 XX0005               428661.12356523  428661.12358569                  0.0              0.0                  0.0              0.0
                      -4.188199961814       -0.0005598                  0.0              0.0                  0.0              0.0

            X0002A    428661.12356523  428661.12358569                  0.0              0.0                  0.0
                      -4.188199961814       -0.0005598                  0.0              0.0                  0.0

 XX0003               -214334.1888702  428661.12358569                  0.0              0.0                  0.0              0.0
                      -371229.3285223     -120.0005598                  0.0              0.0                  0.0              0.0

            X0002B    -214334.1888702  428661.12358569                  0.0              0.0                  0.0
                      -371229.3285223     -120.0005598                  0.0              0.0                  0.0

 XX0004               -214326.9346951  428661.12358569                  0.0              0.0                  0.0              0.0
                      371233.51672225      119.9994402                  0.0              0.0                  0.0              0.0

            X0002C    -214326.9346951  428661.12358569                  0.0              0.0                  0.0
                      371233.51672225      119.9994402                  0.0              0.0                  0.0

 X0001A               -338.1666535433  3945.9642226177      -.3705309185E-3  .37189836629E-3      .17288549356E-4  .17288549356E-4
                      3931.4471840036       94.9162427       -.318627258E-4     -175.0851073      -.7337488237112       -0.7337488

            TERRA                 0.0              0.0      .37053091849E-3  .37189836629E-3                  0.0
                                  0.0              0.0      .31862725805E-4        4.9148927                  0.0

 X0001A               -338.1666535433  3945.9642226177      -.4289992902188  .42901734257963      80.272998496648  92027.940117044
                      3931.4471840036       94.9162427      .00393563538397      179.4743838      -842.6285754114        0.0000000

            X0002A    428661.12356523  428661.12358569      .42899929021878  .42901734257963      91947.667118548
                      -4.188199961814       -0.0005598       -.003935635384       -0.5256162      842.62857541139

 X0001B               3573.8164617556  3945.9642226177      .21790800533193  .42901734257963      80.272998496646  92027.940117044
                      -1672.862679321      -25.0837573      .36955646584297       59.4743838      -842.6285754114        0.0000000

            X0002B    -214334.1888702  428661.12358569      -.2179080053319  .42901734257963      91947.667118548
                      -371229.3285223     -120.0005598       -.369556465843     -120.5256162       842.6285754114

 X0001C               -3235.649808212  3945.9642226177      .21109128488684  .42901734257963      80.272998496647  92027.940117044
                      -2258.584504683     -145.0837573      -.3734921012269      -60.5256162      -842.6285754114        0.0000000

            X0002C    -214326.9346951  428661.12358569      -.2110912848868  .42901734257963      91947.667118548
                      371233.51672225      119.9994402      .37349210122693      119.4743838       842.6285754114

 X0002C               -214326.9346951  428661.12358569      -.0349884105951  .04040035909088      .20402362683417  .20402362683417
                      371233.51672225      119.9994402      -.0201990133101     -150.0019098      -8659.031658177    -8659.0316582

            TERRA                 0.0              0.0      .03498841059507  .04040035909088                  0.0
                                  0.0              0.0      .02019901331013       29.9980902                  0.0

 X0002A               428661.12356523  428661.12358569      .13466395813E-5  .04040035909088      .20402362683397  .20402362683397
                      -4.188199961814       -0.0005598      .04040035906843       89.9980902      -8659.031658177    -8659.0316582

            TERRA                 0.0              0.0      -.1346639581E-5  .04040035909088                  0.0
                                  0.0              0.0      -.0404003590684      -90.0019098                  0.0

 X0001C               -3235.649808212  3945.9642226177      .21285938922E-3  .37189836629E-3      .17288549356E-4  .17288549356E-4
                      -2258.584504683     -145.0837573      -.3049578254E-3      -55.0851073      -.7337488237112       -0.7337488

            TERRA                 0.0              0.0      -.2128593892E-3  .37189836629E-3                  0.0
                                  0.0              0.0      .30495782539E-3      124.9148927                  0.0

 X0001A               -338.1666535433  3945.9642226177      -.7437551161E-3   .0808678638802      -158.8313879266  .40872571303416
                      3931.4471840036       94.9162427      -.0808644435885      -90.5269662      -15.13484611793   -17346.8580262

            X0002A    428661.12356523  428661.12358569      .74375511613E-3   .0808678638802      159.24011363966
                      -4.188199961814       -0.0005598      .08086444358848       89.4730338      -17331.72318005

 X0001B               3573.8164617556  3945.9642226177      -.0696587848524   .0808678638802      -158.8313879266  .40872571303414
                      -1672.862679321      -25.0837573        .041076332619      149.4730338      -15.13484611793   -17346.8580262

            X0002B    -214334.1888702  428661.12358569      .06965878485245   .0808678638802      159.24011363966
                      -371229.3285223     -120.0005598       -.041076332619      -30.5269662      -17331.72318005

 X0001C               -3235.649808212  3945.9642226177      .07040253996858   .0808678638802      -158.8313879266  .40872571303373
                      -2258.584504683     -145.0837573      .03978811096947       29.4730338      -15.13484611793   -17346.8580262

            X0002C    -214326.9346951  428661.12358569      -.0704025399686   .0808678638802      159.24011363966
                      371233.51672225      119.9994402      -.0397881109695     -150.5269662      -17331.72318005

 LN1A                 -338.1666539734  3945.9642225778      .43011392203387  .43694428941841      78.550411442757  2.3607194046212
                      3931.4471839266       94.9162427      .07695665096661       10.1441112      858.49717035304    -2950.9874316

            VFF2A     -332.1538897017  3867.8798531426      -1.959145290006  1.9701989551495      -76.18969203814
                      3853.5916171674       94.9263383      -.2084074267404     -173.9278988      -3809.484601907

 LN1B                  3573.816461904  3945.9642225779      -.1484105462897   .4369442894184      78.550411442752  2.3607194046189
                       -1672.86267891      -25.0837573       -.410967908486     -109.8558888      858.49717035304    -2950.9874316

            VFF2B     3503.3851811286  3867.8798531426      .79908651910831  1.9701989551495      -76.18969203813
                      -1639.142102136      -25.0736617      1.8008733042198       66.0721012      -3809.484601907

 LN1C                 -3235.649807931  3945.9642225779      -.2817033757442   .4369442894184      78.550411442765  2.3607194046214
                      -2258.584505017     -145.0837573      .33401125751938      130.1441112      858.49717035304    -2950.9874316

            VFF2C     -3171.231291427  3867.8798531427      1.1600587708974  1.9701989551495      -76.18969203814
                      -2214.449515031     -145.0736617      -1.592465877479      -53.9278988      -3809.484601907
     Total network loss  P-loss  by summing injections =   2.765892187724E+05

Output for steady-state phasor switch currents.
      Node-K    Node-M            I-real            I-imag            I-magn          Degrees        Power            Reactive
      LN1A      COMPA        -2.83117846E-07    4.23734030E-06    4.24678802E-06      93.8225    8.37731029E-03    1.59932165E-04
      LN1B      COMPB         3.79023584E-06   -1.58223736E-06    4.10723298E-06     -22.6581    8.09623653E-03   -3.42959083E-04
      LN1C      COMPC        -3.69978499E-06   -3.07109469E-06    4.80832939E-06    -140.3048    9.45376772E-03   -7.90354945E-04
      VFF2A     RSNNHA        1.95914529E+00    2.08407427E-01    1.97019896E+00       6.0721    7.61896920E+01    3.80948460E+03
      VFF2B     RSNNHB       -7.99086519E-01   -1.80087330E+00    1.97019896E+00    -113.9279    7.61896920E+01    3.80948460E+03
      VFF2C     RSNNHC       -1.16005877E+00    1.59246588E+00    1.97019896E+00     126.0721    7.61896920E+01    3.80948460E+03
      VFF2A     SE2A              Open              Open              Open             Open          Open              Open
      VFF2B     SE2B              Open              Open              Open             Open          Open              Open
      VFF2C     SE2C              Open              Open              Open             Open          Open              Open
      X0001B    XX0003            Open              Open              Open             Open          Open              Open
      X0001C    XX0004            Open              Open              Open             Open          Open              Open
      XX0005    X0002A            Open              Open              Open             Open          Open              Open
      XX0003    X0002B            Open              Open              Open             Open          Open              Open
      XX0004    X0002C            Open              Open              Open             Open          Open              Open
      X0001A    XX0005            Open              Open              Open             Open          Open              Open
      VFUENA    IFUENA        4.30160687E-01    1.17329163E-01    4.45874813E-01      15.2567    9.21964916E+04   -2.51472009E+04
      VFUENB    IFUENB       -1.13470307E-01   -4.31194664E-01    4.45874813E-01    -104.7433    9.21964916E+04   -2.51472009E+04
      VFUENC    IFUENC       -3.16690379E-01    3.13865501E-01    4.45874813E-01     135.2567    9.21964916E+04   -2.51472009E+04
      COMPA     RSNSHA       -2.83117846E-07    4.23734030E-06    4.24678802E-06      93.8225    8.37731029E-03    1.59932165E-04
      COMPB     RSNSHB        3.79023584E-06   -1.58223736E-06    4.10723298E-06     -22.6581    8.09623653E-03   -3.42959083E-04
      COMPC     RSNSHC       -3.69978499E-06   -3.07109469E-06    4.80832939E-06    -140.3048    9.45376772E-03   -7.90354945E-04

Solution at nodes with known voltage.   Nodes that are shorted together by switches are shown as a group of names, with the printed
result applying to the composite group.   The entry "MVA" is  SQRT( P**2 + Q**2 )  in units of power,  while  "P.F."  is the
associated power factor.
              Node                Source  node  voltage             Injected  source  current              Injected  source  power
              name         Rectangular            Polar          Rectangular            Polar            P  and  Q    MVA and P.F.

               VFUENA
              IFUENA       428660.705       428660.705      .43016068660482  .44587481296656      92196.491591653  95564.505833994
                                  0.0              0.0       .1173291632018       15.2566823      -25147.20090757        0.9647566

               VFUENB
              IFUENB     -214330.3525       428660.705      -.1134703073615  .44587481296619      92196.491591387  95564.505833915
                      -371231.0601341     -120.0000000      -.4311946639105     -104.7433177      -25147.20090825        0.9647566

               VFUENC
              IFUENC     -214330.3525       428660.705       -.316690379236  .44587481296313      92196.491591065   95564.50583326
                      371231.06013415      120.0000000      .31386550070734      135.2566823      -25147.20090693        0.9647566

  +++  Node  "COMPC "  has no connected linear branches.  Add (to ground) the conductance  G = 1.00000000E-18  mhos.
  +++  Node  "COMPB "  has no connected linear branches.  Add (to ground) the conductance  G = 1.00000000E-18  mhos.
  +++  Node  "COMPA "  has no connected linear branches.  Add (to ground) the conductance  G = 1.00000000E-18  mhos.
Card of names for time-step loop output.          |  LN1A  LN1B  LN1C  COMPA COMPB COMPC SB1A  SB1B  SB1C  SE2A  SE2B  SE2C  VFF2A
Card of names for time-step loop output.          |  VFF2B VFF2C IFUENAIFUENBIFUENC
Card of names for time-step loop output.          |-5VFF2A VFF2B VFF2B VFF2C VFF2C VFF2A LN1A  LN1B  LN1B  LN1C  LN1C  LN1A
Card of names for time-step loop output.          |-5SB1A  SB1B  SB1B  SB1C  SB1C  SB1A
Blank card ending requests for output variables.  |BLANK OUTPUT

Column headings for the  55   EMTP output variables follow.  These are divided among the 5 possible classes as follows ....
  First  27     output variables are electric-network voltage differences (upper voltage minus lower voltage);
  Next   6     output variables are branch currents (flowing from the upper node to the lower node);
  Next   22     output variables belong to MODELS (with "MODELS" an internally-added upper name of pair).
   Step      Time      LN1A       LN1B       LN1C       COMPA      COMPB      COMPC      SB1A       SB1B       SB1C       SE2A
 

                       SE2B       SE2C       VFF2A      VFF2B      VFF2C      IFUENA     IFUENB     IFUENC     VFF2A      VFF2B
                                                                                                               VFF2B      VFF2C

                       VFF2C      LN1A       LN1B       LN1C       SB1A       SB1B       SB1C       VFUENA     VFUENB     VFUENC
                       VFF2A      LN1B       LN1C       LN1A       SB1B       SB1C       SB1A       IFUENA     IFUENB     IFUENC

                       COMPA      COMPB      COMPC      MODELS     MODELS     MODELS     MODELS     MODELS     MODELS     MODELS
                       RSNSHA     RSNSHB     RSNSHC     ANVOL      LONG       R0F        R1F        X0F        X1F        RDIVX

                       MODELS     MODELS     MODELS     MODELS     MODELS     MODELS     MODELS     MODELS     MODELS     MODELS
                       RINSER     CLOSE1     RPPOS      RPCERO     LPPOS      LPCERO     CPPOS      CPCERO     XP         CR

                       MODELS     MODELS     MODELS     MODELS     MODELS
                       SIMET      ENC1       ENC2       ENC1AS     ENC2AS
 ***      Phasor I(0) = -2.8311785E-07                     Switch  "LN1A  "  to  "COMPA "  closed in the steady-state.
 ***      Phasor I(0) =  3.7902358E-06                     Switch  "LN1B  "  to  "COMPB "  closed in the steady-state.
 ***      Phasor I(0) = -3.6997850E-06                     Switch  "LN1C  "  to  "COMPC "  closed in the steady-state.
 ***      Phasor I(0) =  1.9591453E+00                     Switch  "VFF2A "  to  "RSNNHA"  closed in the steady-state.
 ***      Phasor I(0) = -7.9908652E-01                     Switch  "VFF2B "  to  "RSNNHB"  closed in the steady-state.
 ***      Phasor I(0) = -1.1600588E+00                     Switch  "VFF2C "  to  "RSNNHC"  closed in the steady-state.
 ***      Phasor I(0) =  4.3016069E-01                     Switch  "VFUENA"  to  "IFUENA"  closed in the steady-state.
 ***      Phasor I(0) = -1.1347031E-01                     Switch  "VFUENB"  to  "IFUENB"  closed in the steady-state.
 ***      Phasor I(0) = -3.1669038E-01                     Switch  "VFUENC"  to  "IFUENC"  closed in the steady-state.
 ***      Phasor I(0) = -2.8311785E-07                     Switch  "COMPA "  to  "RSNSHA"  closed in the steady-state.
 ***      Phasor I(0) =  3.7902358E-06                     Switch  "COMPB "  to  "RSNSHB"  closed in the steady-state.
 ***      Phasor I(0) = -3.6997850E-06                     Switch  "COMPC "  to  "RSNSHC"  closed in the steady-state.
      0       0.0  -338.16665 3573.81646 -3235.6498 -338.16665 3573.81646 -3235.6498 428661.124 -214334.19 -214326.93        0.0
                          0.0        0.0 -332.15389 3503.38518 -3171.2313 428660.705 -214330.35 -214330.35 -3835.5391 6674.61647
                   -2839.0774 -3911.9831 6809.46627 -2897.4832 642995.312 -7.2541749 -642988.06 .430160687 -.11347031 -.31669038
                   -.28312E-6 .379024E-5 -.36998E-5        0.0   145.4194   1.450566   1.566087   8.622515   9.309197     .16823
                         360.    .047195    .018595    .248656     .44499    .933046    .008579    .005624   3925.572   78.51144
                          1.0        0.0        1.0        0.0        0.0
    500     .5E-3  -949.01725 3791.51022  -2842.493 -949.01725 3791.51022  -2842.493 423384.254 -153622.32 -269761.93        0.0
                          0.0        0.0 -930.89907 3716.67101 -2785.7719  423383.18 -153618.26 -269764.92 -4647.5701 6502.44295
                   -1854.8729 -4740.5275  6634.0032 -1893.4757 577006.574 116139.613 -693146.19 .406496713 -.04461454 -.36188217
                     -.105E-5 .395065E-5 -.27872E-5        0.0   145.4194   1.450566   1.566087   8.622515   9.309197     .16823
                         360.    .047195    .018595    .248656     .44499    .933046    .008579    .005624   3925.572   78.51144
                          1.0        0.0        1.0        0.0        0.0
   1000     .1E-2  -1536.4996 3915.84433 -2379.3448 -1536.4996 3915.84433 -2379.3448 407682.249 -89127.755 -318554.49        0.0
                          0.0        0.0  -1506.722 3838.43969 -2331.7177 407680.557 -89123.572 -318556.98 -5345.1617 6170.15741
                   -824.99574 -5452.3439  6295.1891 -842.84521 496810.004 229426.738 -726236.74 .372837893 .025332548 -.39817044
                   -.15984E-5 .406643E-5 -.24678E-5        0.0   145.4194   1.450566   1.566087   8.622515   9.309197     .16823
                         360.    .047195    .018595    .248656     .44499    .933046    .008579    .005624   3925.572   78.51144
                          1.0        0.0        1.0        0.0        0.0
   1500     .0015  -2086.1485  3943.7574 -1857.6089 -2086.1485  3943.7574 -1857.6089 381941.769 -22438.577 -359503.19        0.0
                          0.0        0.0 -2045.4452 3865.69384 -1820.2486 381939.485 -22434.368 -359505.12 -5911.1391 5685.94243
                   225.196655 -6029.9059 5801.36629 228.539614 404380.345 337064.615 -741444.96 .329995013 .094657651 -.42465266
                   -.20116E-5 .427988E-5 -.20408E-5        0.0   145.4194   1.450566   1.566087   8.622515   9.309197     .16823
                         360.    .047195    .018595    .248656     .44499    .933046    .008579    .005624   3925.572   78.51144
                          1.0        0.0        1.0        0.0        0.0
   2000      .002  -2584.4291 3874.56199 -1290.1329 -2584.4291 3874.56199 -1290.1329 346796.592 44803.1249 -391599.72        0.0
                          0.0        0.0 -2533.8019 3797.76116 -1263.9592 346793.795 44807.2448 -391601.04 -6331.5631 5061.72041
                   1269.84268 -6458.9911 5164.69488  1294.2962 301993.467 436402.842 -738396.31 .279032439 .161649021 -.44068146
                   -.25574E-5 .390703E-5 -.13495E-5        0.0   145.4194   1.450566   1.566087   8.622515   9.309197     .16823
                         360.    .047195    .018595    .248656     .44499    .933046    .008579    .005624   3925.572   78.51144
                          1.0        0.0        1.0        0.0        0.0
   2500     .0025  -3019.0719 3709.96158 -690.88972 -3019.0719 3709.96158 -690.88972 303112.151 110941.616 -414053.77        0.0
                          0.0        0.0 -2959.7691 3636.31571 -676.54662 303108.891 110945.554 -414054.45 -6596.0848 4312.86233
                   2283.22246 -6729.0334  4400.8513 2328.18214 192170.534 524995.383 -717165.92 .221194581 .224662351 -.44585693
                   -.31316E-5 .410189E-5 -.74267E-6        0.0   145.4194   1.450566   1.566087   8.622515   9.309197     .16823
                         360.    .047195    .018595    .248656     .44499    .933046    .008579    .005624   3925.572   78.51144
                          1.0        0.0        1.0        0.0        0.0
   3000      .003  -3379.3767 3454.01057 -74.633878 -3379.3767 3454.01057 -74.633878  251964.07 174348.363 -426312.43        0.0
                          0.0        0.0 -3312.8559 3385.33148 -72.475542 251960.441 174352.016 -426312.46 -6698.1874 3457.80702
                    3240.3804 -6833.3873 3528.64445 3304.74281 77615.7065 600660.796  -678276.5 .157913736 .282141966  -.4400557
                   -.35298E-5 .356769E-5 -.80603E-7        0.0   145.4194   1.450566   1.566087   8.622515   9.309197     .16823
                         360.    .047195    .018595    .248656     .44499    .933046    .008579    .005624   3925.572   78.51144
                          1.0        0.0        1.0        0.0        0.0
   3500     .0035  -3656.4692 3113.00982 543.459404 -3656.4692 3113.00982 543.459404 194611.813 233462.066 -428073.88        0.0
                          0.0        0.0 -3584.3699 3050.98963   533.3803 194607.888 233465.353 -428073.24 -6635.3596 2517.60933
                   4117.75023  -6769.479 2569.55042 4199.92863 -38850.253 661535.946 -622685.69 .090743619  .33267477 -.42341839
                   -.37436E-5 .336939E-5 .601634E-6        0.0   145.4194   1.450566   1.566087   8.622515   9.309197     .16823
                         360.    .047195    .018595    .248656     .44499    .933046    .008579    .005624   3925.572   78.51144
                          1.0        0.0        1.0        0.0        0.0
   4000      .004  -3843.5275 2695.35669 1148.17086 -3843.5275 2695.35669 1148.17086 132467.553 286827.166 -419294.72        0.0
                          0.0        0.0  -3767.624 2641.52174 1126.10223 132463.443 286829.997 -419293.44 -6409.1457 1515.41951
                   4893.72621 -6538.8842 1547.18583  4991.6984 -154359.61 706121.886 -551762.27 .021336605 .375017257 -.39635386
                   -.39175E-5   .2831E-5 .131386E-5        0.0   145.4194   1.450566   1.566087   8.622515   9.309197     .16823
                         360.    .047195    .018595    .248656     .44499    .933046    .008579    .005624   3925.572   78.51144
                          1.0        0.0        1.0        0.0        0.0
   4500     .0045  -3935.9456 2211.33485  1724.6107 -3935.9456 2211.33485  1724.6107 67061.5088 333129.626 -400191.13        0.0
                          0.0        0.0 -3858.1074 2167.01137 1691.09604 67057.3081 333131.936 -400189.24 -6025.1188 475.915322
                   5549.20346 -6147.2804 486.724157 5660.55625 -266068.12 733320.761 -467252.64 -.04859549 .408125425 -.35952994
                   -.43184E-5 .253622E-5 .178197E-5        0.0   145.4194   1.450566   1.566087   8.622515   9.309197     .16823
                         360.    .047195    .018595    .248656     .44499    .933046    .008579    .005624   3925.572   78.51144
                          1.0        0.0        1.0        0.0        0.0
   5000      .005  -3931.4468 1672.86242  2258.5844 -3931.4468 1672.86242  2258.5844 4.18818538 371229.329 -371233.52        0.0
                          0.0        0.0 -3853.5917   1639.142 2214.44971 -.45661E-7  371231.06 -371231.06 -5492.7337 -575.30771
                   6068.04142 -5604.3092 -585.72199 6190.03122 -371225.14 742462.845  -371237.7 -.11732987 .431183628 -.31385376
                   -.39288E-5 .184371E-5 .231247E-5        0.0   145.4194   1.450566   1.566087   8.622515   9.309197     .16823
                         360.    .047195    .018595    .248656     .44499    .933046    .008579    .005624   3925.572   78.51144
                          1.0        0.0        1.0        0.0        0.0
   5500     .0055  -3830.1427 1093.19837 2736.94431 -3830.1427 1093.19837 2736.94431 -67053.236 400188.133  -333134.9        0.0
                          0.0        0.0 -3754.1868 1070.91115 2683.27562 -67057.308 400189.244 -333131.94 -4825.0979 -1612.3645
                    6437.4624 -4923.3411 -1643.7459   6567.087 -467241.37  733323.03 -266081.66 -.18317465 .443624385 -.26044974
                   -.39388E-5 .125382E-5   .2685E-5        0.0   145.4194   1.450566   1.566087   8.622515   9.309197     .16823
                         360.    .047195    .018595    .248656     .44499    .933046    .008579    .005624   3925.572   78.51144
                          1.0        0.0        1.0        0.0        0.0
   6000      .006  -3634.5285  486.61669 3147.91183 -3634.5285  486.61669 3147.91183 -132459.59 419292.979 -286833.39        0.0
                          0.0        0.0  -3562.341 476.310629 3086.03033 -132463.44  419293.44   -286830. -4038.6516 -2609.7197
                   6648.37129 -4121.1452 -2661.2951 6782.44034 -551752.57 706126.369  -154373.8 -.24450955  .44514188 -.20063233
                   -.39377E-5  .52077E-6 .330317E-5        0.0   145.4194   1.450566   1.566087   8.622515   9.309197     .16823
                         360.    .047195    .018595    .248656     .44499    .933046    .008579    .005624   3925.572   78.51144
                          1.0        0.0        1.0        0.0        0.0
   6500     .0065  -3349.4203 -131.94719 3481.36745 -3349.4203 -131.94719 3481.36745 -194604.34 428073.438 -233469.09        0.0
                          0.0        0.0 -3282.7801 -130.01731 3412.79738 -194607.89  428073.24 -233465.35 -3152.7628 -3542.8147
                   6695.57745 -3217.4731 -3613.3146 6830.78772 -622677.78 661542.532 -38864.751 -.29982359  .43569839  -.1358748
                   -.35677E-5 -.15207E-6 .352063E-5        0.0   145.4194   1.450566   1.566087   8.622515   9.309197     .16823
                         360.    .047195    .018595    .248656     .44499    .933046    .008579    .005624   3925.572   78.51144
                          1.0        0.0        1.0        0.0        0.0
   7000      .007   -2981.838 -747.26204 3729.10003  -2981.838 -747.26204 3729.10003  -251957.3  426313.31 -174356.01        0.0
                          0.0        0.0 -2922.3862 -733.14392 3655.53014 -251960.44 426312.457 -174352.02 -2189.2423 -4388.6741
                   6577.91636 -2234.5759 -4476.3621 6710.93802 -678270.61 600669.323 77601.2845 -.34775534 .415526741  -.0677714
                   -.31027E-5 -.75215E-6 .385474E-5        0.0   145.4194   1.450566   1.566087   8.622515   9.309197     .16823
                         360.    .047195    .018595    .248656     .44499    .933046    .008579    .005624   3925.572   78.51144
                          1.0        0.0        1.0        0.0        0.0
   7500     .0075  -2540.8329  -1344.177 3885.00989 -2540.8329  -1344.177 3885.00989 -303106.23 414055.936 -110949.71        0.0
                          0.0        0.0 -2490.0322 -1318.2186 3808.25084 -303108.89 414054.446 -110945.55 -1171.8136 -5126.4694
                   6298.28307  -1196.656 -5229.1868 6425.84282 -717162.17 525005.642 192156.525 -.38712425 .385123471 .002000776
                   -.27528E-5 -.14268E-5 .417954E-5        0.0   145.4194   1.450566   1.566087   8.622515   9.309197     .16823
                         360.    .047195    .018595    .248656     .44499    .933046    .008579    .005624   3925.572   78.51144
                          1.0        0.0        1.0        0.0        0.0
   8000      .008  -2037.2639 -1907.9938 3945.25767 -2037.2639 -1907.9938 3945.25767 -346791.67 391603.127 -44811.453        0.0
                          0.0        0.0 -1996.3657 -1870.8343 3867.20003  -346793.8  391601.04 -44807.245 -125.53135 -5738.0344
                   5863.56571 -129.27014 -5853.2514 5982.52158  -738394.8 436414.579 301980.221 -.41696134 .345237415 .071723922
                    -.2071E-5 -.21117E-5 .395533E-5        0.0   145.4194   1.450566   1.566087   8.622515   9.309197     .16823
                         360.    .047195    .018595    .248656     .44499    .933046    .008579    .005624   3925.572   78.51144
                          1.0        0.0        1.0        0.0        0.0
   8500     .0085  -1483.5307 -2424.8295 3908.36026 -1483.5307 -2424.8295 3908.36026 -381937.95 359507.747 22430.2055        0.0
                          0.0        0.0 -1453.5427 -2377.3835 3830.92614 -381939.48 359505.117 22434.3679  923.84076 -6208.3096
                   5284.46883 941.298793 -6333.1898 5391.89099  -741445.7 337077.542 404368.158 -.43653129 .296850388 .139680904
                   -.14913E-5 -.26575E-5 .414904E-5        0.0   145.4194   1.450566   1.566087   8.622515   9.309197     .16823
                         360.    .047195    .018595    .248656     .44499    .933046    .008579    .005624   3925.572   78.51144
                          1.0        0.0        1.0        0.0        0.0
   9000      .009  -893.26835 -2881.9577 3775.22604 -893.26835 -2881.9577 3775.22604 -407679.66 318560.097 89119.5617        0.0
                          0.0        0.0 -874.92814 -2825.3939 3700.32201 -407680.56 318556.985  89123.572 1950.46573 -6525.7159
                   4575.25015 1988.68934 -6657.1837 4668.49439 -726239.76 229440.536 496799.221  -.4453513  .24115337 .204197931
                   -.92918E-6 -.29561E-5 .388548E-5        0.0   145.4194   1.450566   1.566087   8.622515   9.309197     .16823
                         360.    .047195    .018595    .248656     .44499    .933046    .008579    .005624   3925.572   78.51144
                          1.0        0.0        1.0        0.0        0.0
   9500     .0095  -281.01054 -3268.1227 3549.13326 -281.01054 -3268.1227 3549.13326 -423382.94 269768.442 153614.499        0.0
                          0.0        0.0 -274.76992 -3203.8336 3478.60353 -423383.18 269764.922 153618.258 2929.06369 -6682.4371
                   3753.37345 2987.11218  -6817.256  3830.1438 -693151.38 116153.943 576997.439 -.44320523 .179518329 .263686904
                   -.30831E-6 -.36258E-5 .365009E-5        0.0   145.4194   1.450566   1.566087   8.622515   9.309197     .16823
                         360.    .047195    .018595    .248656     .44499    .933046    .008579    .005624   3925.572   78.51144
                          1.0        0.0        1.0        0.0        0.0
  10000       .01  338.166382 -3573.8155 3235.64907 338.166382 -3573.8155 3235.64907 -428661.12 214334.189 214326.935        0.0
                          0.0        0.0  332.15351 -3503.3842 3171.23068 -428660.71 214330.353 214330.352  3835.5377 -6674.6149
                   2839.07717 3911.98183 -6809.4645 2897.48269 -642995.31 7.25396068 642988.058 -.43014746 .113463692  .31668377
                   .328526E-6 -.37885E-5 .357372E-5        0.0   145.4194   1.450566   1.566087   8.622515   9.309197     .16823
                         360.    .047195    .018595    .248656     .44499    .933046    .008579    .005624   3925.572   78.51144
                          1.0        0.0        1.0        0.0        0.0
  10500     .0105  949.016154 -3791.5089 2842.49278 949.016154 -3791.5089 2842.49278 -423384.25 153622.318 269761.931        0.0
                          0.0        0.0 930.898366 -3716.6698 2785.77142 -423383.18 153618.258 269764.922 4647.56815 -6502.4412
                   1854.87306 4740.52508 -6634.0017 1893.47662 -577006.57 -116139.61  693146.18 -.40649798 .044615178 .361882803
                   .953128E-6 -.39028E-5 .283588E-5        0.0   145.4194   1.450566   1.566087   8.622515   9.309197     .16823
                         360.    .047195    .018595    .248656     .44499    .933046    .008579    .005624   3925.572   78.51144
                          1.0        0.0        1.0        0.0        0.0
  11000      .011  1536.49882 -3915.8432 2379.34435 1536.49882 -3915.8432 2379.34435 -407682.25 89127.7561 318554.494        0.0
                          0.0        0.0 1506.72174 -3838.4389 2331.71719 -407680.56  89123.572 318556.985 5345.16067 -6170.1561
                   824.995457   5452.342 -6295.1875 842.845531 -496810.01 -229426.74 726236.744 -.37283782 -.02533259 .398170405
                   .153521E-5  -.4034E-5 .249874E-5        0.0   145.4194   1.450566   1.566087   8.622515   9.309197     .16823
                         360.    .047195    .018595    .248656     .44499    .933046    .008579    .005624   3925.572   78.51144
                          1.0        0.0        1.0        0.0        0.0
  11500     .0115   2086.1482 -3943.7567  1857.6085  2086.1482 -3943.7567  1857.6085 -381941.76 22438.5719 359503.187        0.0
                          0.0        0.0 2045.44461 -3865.6929 1820.24824 -381939.48 22434.3679 359505.117 5911.13747 -5685.9411
                   -225.19637 6029.90491 -5801.3652 -228.53971 -404380.33 -337064.61 741444.945 -.32999755 -.09465638 .424653931
                   .230621E-5 -.42014E-5 .189513E-5        0.0   145.4194   1.450566   1.566087   8.622515   9.309197     .16823
                         360.    .047195    .018595    .248656     .44499    .933046    .008579    .005624   3925.572   78.51144
                          1.0        0.0        1.0        0.0        0.0
  12000      .012  2584.42842 -3874.5611 1290.13269 2584.42842 -3874.5611 1290.13269 -346796.59 -44803.124 391599.718        0.0
                          0.0        0.0 2533.80189 -3797.7607 1263.95885  -346793.8 -44807.245  391601.04 6331.56262 -5061.7196
                    -1269.843 6458.98953 -5164.6938 -1294.2957 -301993.47 -436402.84 738396.313 -.27903261 -.16164894 .440681547
                   .268582E-5 -.39699E-5 .128441E-5        0.0   145.4194   1.450566   1.566087   8.622515   9.309197     .16823
                         360.    .047195    .018595    .248656     .44499    .933046    .008579    .005624   3925.572   78.51144
                          1.0        0.0        1.0        0.0        0.0
  12500     .0125  3019.07128  -3709.961 690.889738 3019.07128  -3709.961 690.889738 -303112.15 -110941.62 414053.766        0.0
                          0.0        0.0 2959.76801 -3636.3148 676.546766 -303108.89 -110945.55 414054.446 6596.08278 -4312.8615
                   -2283.2212 6729.03229 -4400.8508 -2328.1815 -192170.53 -524995.38 717165.916 -.22119623 -.22466153  .44585776
                   .336975E-5 -.37647E-5 .736094E-6        0.0   145.4194   1.450566   1.566087   8.622515   9.309197     .16823
                         360.    .047195    .018595    .248656     .44499    .933046    .008579    .005624   3925.572   78.51144
                          1.0        0.0        1.0        0.0        0.0
  13000      .013  3379.37586 -3454.0099 74.6340427 3379.37586 -3454.0099 74.6340427 -251964.07 -174348.36 426312.435        0.0
                          0.0        0.0 3312.85462 -3385.3307  72.476084 -251960.44 -174352.02 426312.457 6698.18533 -3457.8068
                   -3240.3785 6833.38577  -3528.644 -3304.7418 -77615.714  -600660.8  678276.51 -.15791275 -.28214246 .440055212
                   .333609E-5 -.36973E-5 .767977E-7        0.0   145.4194   1.450566   1.566087   8.622515   9.309197     .16823
                         360.    .047195    .018595    .248656     .44499    .933046    .008579    .005624   3925.572   78.51144
                          1.0        0.0        1.0        0.0        0.0
  13500     .0135   3656.4688 -3113.0096 -543.45916  3656.4688 -3113.0096 -543.45916 -194611.81 -233462.07 428073.877        0.0
                          0.0        0.0 3584.36883  -3050.989 -533.37984 -194607.89 -233465.35  428073.24 6635.35782 -2517.6091
                   -4117.7487 6769.47844 -2569.5505  -4199.928 38850.2603 -661535.95 622685.686 -.09074172 -.33267572 .423417437
                    .37829E-5 -.31639E-5 -.61921E-6        0.0   145.4194   1.450566   1.566087   8.622515   9.309197     .16823
                         360.    .047195    .018595    .248656     .44499    .933046    .008579    .005624   3925.572   78.51144
                          1.0        0.0        1.0        0.0        0.0
  14000      .014  3843.52632 -2695.3561 -1148.1702 3843.52632 -2695.3561 -1148.1702 -132467.56 -286827.16 419294.721        0.0
                          0.0        0.0 3767.62416  -2641.522 -1126.1021 -132463.44   -286830.  419293.44 6409.14617 -1515.4199
                   -4893.7263 6538.88245  -1547.186 -4991.6965 154359.609 -706121.89 551762.276 -.02133643 -.37501734 .396353777
                   .425366E-5 -.27716E-5 -.12548E-5        0.0   145.4194   1.450566   1.566087   8.622515   9.309197     .16823
                         360.    .047195    .018595    .248656     .44499    .933046    .008579    .005624   3925.572   78.51144
                          1.0        0.0        1.0        0.0        0.0
  14500     .0145  3935.94404 -2211.3344 -1724.6096 3935.94404 -2211.3344 -1724.6096 -67061.511 -333129.62 400191.136        0.0
                          0.0        0.0 3858.10649 -2167.0111 -1691.0954 -67057.308 -333131.94 400189.244  6025.1176 -475.91573
                   -5549.2019 6147.27848 -486.72483 -5660.5536 266068.114 -733320.76 467252.647 .048594775 -.40812507 .359530297
                   .399563E-5  -.2373E-5 -.18501E-5        0.0   145.4194   1.450566   1.566087   8.622515   9.309197     .16823
                         360.    .047195    .018595    .248656     .44499    .933046    .008579    .005624   3925.572   78.51144
                          1.0        0.0        1.0        0.0        0.0
  % % % % % %   Suspended simulation;  plot data space exhausted;  SPY SPACE is required.   LIMBUF =  840000.
  % % % % % %   Suspended simulation;  plot data space exhausted;  SPY SPACE is required.   LIMBUF =  840000.
  +++  Time-sharing disabled.   Send  user-keyed interrupt to silence alarm.
   Current values.  INDBUF  INDBEG  LIMBUF  MFLUSH  NUMDCD  KCARD1  KCARD2
                    839994      50  840000    1000     230       1     231
Plot timespan now in memory (in sec) = 0.00000000E+00   1.49990000E-02
   ++++  Begin plot-data copy from memory to disk.   MFLUSH, INDBUF, N4, Tbeg,  Tend = 1001  839994       1  -1.00000E+00
1.00000E+19
  15000      .015  3931.44615 -1672.8624 -2258.5837 3931.44615 -1672.8624 -2258.5837   -4.18776 -371229.33 371233.517        0.0
                          0.0        0.0 3853.58959 -1639.1414 -2214.4482 -.61533E-6 -371231.06  371231.06 5492.73099 575.306781
                   -6068.0378 5604.30858 585.721292 -6190.0299 371225.141 -742462.85 371237.704  .11732921  -.4311833 .313854088
                   .389463E-5 -.18274E-5 -.25218E-5        0.0   145.4194   1.450566   1.566087   8.622515   9.309197     .16823
                         360.    .047195    .018595    .248656     .44499    .933046    .008579    .005624   3925.572   78.51144
                          1.0        0.0        1.0        0.0        0.0
  15500     .0155  3830.14237 -1093.1988 -2736.9436 3830.14237 -1093.1988 -2736.9436 67053.2373 -400188.13 333134.897        0.0
                          0.0        0.0 3754.18631 -1070.9114 -2683.2749 67057.3081 -400189.24 333131.936 4825.09769 1612.36355
                   -6437.4612 4923.34117 1643.74475 -6567.0859 467241.371 -733323.03 266081.659 .183174399 -.44362426 .260449856
                   .395572E-5 -.10382E-5 -.26904E-5        0.0   145.4194   1.450566   1.566087   8.622515   9.309197     .16823
                         360.    .047195    .018595    .248656     .44499    .933046    .008579    .005624   3925.572   78.51144
                          1.0        0.0        1.0        0.0        0.0
  16000      .016  3634.52814 -486.61708 -3147.9111 3634.52814 -486.61708 -3147.9111 132459.589 -419292.98  286833.39        0.0
                          0.0        0.0 3562.34209 -476.31188 -3086.0302 132463.443 -419293.44 286829.997 4038.65398 2609.71832
                   -6648.3723 4121.14522 2661.29398 -6782.4392 551752.568 -706126.37   154373.8  .24450959  -.4451419 .200632308
                   .392981E-5 -.51704E-6  -.3299E-5        0.0   145.4194   1.450566   1.566087   8.622515   9.309197     .16823
                         360.    .047195    .018595    .248656     .44499    .933046    .008579    .005624   3925.572   78.51144
                          1.0        0.0        1.0        0.0        0.0
  16500     .0165  3349.42036 131.946356 -3481.3667 3349.42036 131.946356 -3481.3667 194604.347 -428073.44 233469.093        0.0
                          0.0        0.0 3282.77952 130.016938 -3412.7965 194607.888 -428073.24 233465.353 3152.76258  3542.8134
                    -6695.576   3217.474 3613.31307 -6830.7871 622677.786 -661542.53 38864.7462 .299824124 -.43569866 .135874534
                   .335859E-5 .144469E-6 -.38727E-5        0.0   145.4194   1.450566   1.566087   8.622515   9.309197     .16823
                         360.    .047195    .018595    .248656     .44499    .933046    .008579    .005624   3925.572   78.51144
                          1.0        0.0        1.0        0.0        0.0
  17000      .017  2981.83757 747.261533 -3729.0991 2981.83757 747.261533 -3729.0991 251957.297 -426313.31 174356.013        0.0
                          0.0        0.0 2922.38469 733.143852 -3655.5285 251960.441 -426312.46 174352.016 2189.24084  4388.6724
                   -6577.9132 2234.57604 4476.36064 -6710.9367 678270.608 -600669.32 -77601.285 .347755671 -.41552691 .067771236
                   .332556E-5 .753501E-6 -.37383E-5        0.0   145.4194   1.450566   1.566087   8.622515   9.309197     .16823
                         360.    .047195    .018595    .248656     .44499    .933046    .008579    .005624   3925.572   78.51144
                          1.0        0.0        1.0        0.0        0.0
  17500     .0175  2540.83176 1344.17667 -3885.0084 2540.83176 1344.17667 -3885.0084 303106.225 -414055.93 110949.709        0.0
                          0.0        0.0 2490.03222 1318.21787 -3808.2501 303108.891 -414054.45 110945.554 1171.81435 5126.46796
                   -6298.2823 1196.65509  5229.1851 -6425.8402 717162.158 -525005.64 -192156.52 .387124377 -.38512353 -.00200084
                   .258025E-5 .151143E-5 -.40918E-5        0.0   145.4194   1.450566   1.566087   8.622515   9.309197     .16823
                         360.    .047195    .018595    .248656     .44499    .933046    .008579    .005624   3925.572   78.51144
                          1.0        0.0        1.0        0.0        0.0
  18000      .018  2037.26396 1907.99298 -3945.2569 2037.26396 1907.99298 -3945.2569 346791.673 -391603.13  44811.453        0.0
                          0.0        0.0 1996.36627 1870.83318 -3867.1995 346793.795 -391601.04 44807.2448  125.53309 5738.03263
                   -5863.5657 129.270986 5853.24991 -5982.5209   738394.8 -436414.58 -301980.22 .416960948 -.34523722 -.07172373
                   .211301E-5  .19767E-5 -.40897E-5        0.0   145.4194   1.450566   1.566087   8.622515   9.309197     .16823
                         360.    .047195    .018595    .248656     .44499    .933046    .008579    .005624   3925.572   78.51144
                          1.0        0.0        1.0        0.0        0.0
  18500     .0185  1483.53207 2424.82799 -3908.3601 1483.53207 2424.82799 -3908.3601 381937.957 -359507.75 -22430.208        0.0
                          0.0        0.0 1453.54272 2377.38271 -3830.9254 381939.485 -359505.12 -22434.368 -923.83998 6208.30814
                   -5284.4682 -941.29592 6333.18806 -5391.8921 741445.707 -337077.54 -404368.17 .436530613 -.29685005 -.13968057
                   .149844E-5 .242629E-5 -.39248E-5        0.0   145.4194   1.450566   1.566087   8.622515   9.309197     .16823
                         360.    .047195    .018595    .248656     .44499    .933046    .008579    .005624   3925.572   78.51144
                          1.0        0.0        1.0        0.0        0.0
  19000      .019   893.26873 2881.95681 -3775.2255  893.26873 2881.95681 -3775.2255  407679.66  -318560.1 -89119.562        0.0
                          0.0        0.0 874.928686 2825.39279 -3700.3215 407680.557 -318556.98 -89123.572 -1950.4641 6525.71426
                   -4575.2502 -1988.6881 6657.18235 -4668.4943 726239.757 -229440.54 -496799.22 .445351457 -.24115345 -.20419801
                   .922321E-6 .301558E-5 -.38242E-5        0.0   145.4194   1.450566   1.566087   8.622515   9.309197     .16823
                         360.    .047195    .018595    .248656     .44499    .933046    .008579    .005624   3925.572   78.51144
                          1.0        0.0        1.0        0.0        0.0
  19500     .0195  281.010246 3268.12212 -3549.1324 281.010246 3268.12212 -3549.1324 423382.938 -269768.44  -153614.5        0.0
                          0.0        0.0 274.770607 3203.83266 -3478.6033  423383.18 -269764.92 -153618.26  -2929.062 6682.43592
                   -3753.3739 -2987.1119 6817.25448 -3830.1426 693151.378 -116153.94 -576997.44 .443206036 -.17951873  -.2636873
                   .275959E-6 .341491E-5 -.38617E-5        0.0   145.4194   1.450566   1.566087   8.622515   9.309197     .16823
                         360.    .047195    .018595    .248656     .44499    .933046    .008579    .005624   3925.572   78.51144
                          1.0        0.0        1.0        0.0        0.0
  20000       .02  -338.16579 3573.81463 -3235.6488 -338.16579 3573.81463 -3235.6488 428661.124 -214334.19 -214326.94        0.0
                          0.0        0.0 -332.15354 3503.38356   -3171.23 428660.705 -214330.35 -214330.35 -3835.5371 6674.61358
                   -2839.0765 -3911.9804 6809.46346  -2897.483 642995.314 -7.2539579 -642988.06 .430147354 -.11346364 -.31668372
                   -.35249E-6  .37439E-5 -.31642E-5        0.0   145.4194   1.450566   1.566087   8.622515   9.309197     .16823
                         360.    .047195    .018595    .248656     .44499    .933046    .008579    .005624   3925.572   78.51144
                          1.0        0.0        1.0        0.0        0.0
  20500     .0205  -949.01514 3791.50788 -2842.4927 -949.01514 3791.50788 -2842.4927 423384.249 -153622.32 -269761.93        0.0
                          0.0        0.0 -930.89786 3716.66913 -2785.7713  423383.18 -153618.26 -269764.92  -4647.567 6502.44039
                   -1854.8734  -4740.523 6634.00062 -1893.4776 577006.567 116139.613 -693146.18 .406497402 -.04461489 -.36188252
                   -.98189E-6 .374562E-5 -.29912E-5        0.0   145.4194   1.450566   1.566087   8.622515   9.309197     .16823
                         360.    .047195    .018595    .248656     .44499    .933046    .008579    .005624   3925.572   78.51144
                          1.0        0.0        1.0        0.0        0.0
  21000      .021  -1536.4981  3915.8425 -2379.3444 -1536.4981  3915.8425 -2379.3444 407682.249 -89127.755 -318554.49        0.0
                          0.0        0.0 -1506.7202 3838.43775 -2331.7175 407680.557 -89123.572 -318556.98  -5345.158  6170.1553
                   -824.99733 -5452.3406 6295.18694 -842.84637 496810.004 229426.738 -726236.74 .372838116 .025332438 -.39817055
                   -.15127E-5 .413638E-5 -.23963E-5        0.0   145.4194   1.450566   1.566087   8.622515   9.309197     .16823
[...]
                         360.    .047195    .018595    .248656     .44499    .933046    .008579    .005624   3925.572   78.51144
                          1.0        0.0        1.0        0.0        0.0
 113000      .113   -265788.8 -168466.35  434255.15  -265788.8 -168466.35  434255.15  -265788.8 -168466.35  434255.15        0.0
                          0.0        0.0 -270618.75 -165127.71 435746.456 -251960.44 -174352.02 426312.457 -105491.04 -600874.17
                   706365.201 -97322.446  -602721.5 700043.948 -97322.446  -602721.5 700043.949 -79.052265 5.47385081 73.5784144
                   -.30409E-3 -.19128E-3 .524491E-3        0.0   145.4194   1.450566   1.566087   8.622515   9.309197     .16823
                         360.    .047195    .018595    .248656     .44499    .933046    .008579    .005624   3925.572   78.51144
                          1.0        0.0        1.0        0.0        0.0
 113500     .1135  -196581.35 -226809.33  423390.68 -196581.35 -226809.33  423390.68 -196581.35 -226809.33 423390.681        0.0
                          0.0        0.0 -197385.15  -222906.4  420291.55 -194607.89 -233465.35  428073.24  25521.249 -643197.95
                     617676.7 30227.9816 -650200.01  619972.03 30227.9814 -650200.01  619972.03 -57.761262 13.1479695 44.6132927
                   -.23358E-3  -.2398E-3 .502497E-3        0.0   145.4194   1.450566   1.566087   8.622515   9.309197     .16823
                         360.    .047195    .018595    .248656     .44499    .933046    .008579    .005624   3925.572   78.51144
                          1.0        0.0        1.0        0.0        0.0
 114000      .114  -129332.09 -279420.27 408752.365 -129332.09 -279420.27 408752.365 -129332.09 -279420.27 408752.366        0.0
                          0.0        0.0 -110233.58 -273149.93 383383.514 -132463.44   -286830.  419293.44 162916.344 -656533.44
                   493617.098 150088.179 -688172.64 538084.459 150088.179 -688172.64 538084.459 -77.988187 1.56079729 76.4273898
                   -.13861E-3 -.28256E-3 .450253E-3        0.0   145.4194   1.450566   1.566087   8.622515   9.309197     .16823
                         360.    .047195    .018595    .248656     .44499    .933046    .008579    .005624   3925.572   78.51144
                          1.0        0.0        1.0        0.0        0.0
 114500     .1145  -74959.693 -333950.59 408910.287 -74959.693 -333950.59 408910.287 -74959.693 -333950.59 408910.288        0.0
                          0.0        0.0 -53274.079 -317183.97 370458.047 -67057.308 -333131.94 400189.244 263909.889 -687642.02
                   423732.126 258990.901 -742860.88  483869.98 258990.901 -742860.88 483869.981 -181.10649 -22.602478 203.708965
                   -.77168E-4  -.3606E-3 .466794E-3        0.0   145.4194   1.450566   1.566087   8.622515   9.309197     .16823
                         360.    .047195    .018595    .248656     .44499    .933046    .008579    .005624   3925.572   78.51144
                          1.0        0.0        1.0        0.0        0.0
 115000      .115  -722.57823 -366209.41 366931.988 -722.57823 -366209.41 366931.988  -722.5785 -366209.41 366931.989        0.0
                          0.0        0.0 -36897.801 -373115.22 410013.021 .127058E-4 -371231.06  371231.06 336217.419 -783128.24
                   446910.822 365486.832  -733141.4 367654.566 365486.832  -733141.4 367654.567 -133.32836  -24.98837 158.316725
                   -.75227E-6  -.4177E-3  .43121E-3        0.0   145.4194   1.450566   1.566087   8.622515   9.309197     .16823
                         360.    .047195    .018595    .248656     .44499    .933046    .008579    .005624   3925.572   78.51144
                          1.0        0.0        1.0        0.0        0.0
 115500     .1155   65094.914 -405527.04 340432.128  65094.914 -405527.04 340432.128  65094.914 -405527.04 340432.128        0.0
                          0.0        0.0 53294.3243 -390735.08  337440.76 67057.3081 -400189.24 333131.936 444029.409 -728175.84
                   284146.436 470621.957 -745959.17 275337.214 470621.956 -745959.17 275337.214 -19.597643 -8.6660764 28.2637194
                    .74265E-4 -.46547E-3  .41306E-3        0.0   145.4194   1.450566   1.566087   8.622515   9.309197     .16823
                         360.    .047195    .018595    .248656     .44499    .933046    .008579    .005624   3925.572   78.51144
                          1.0        0.0        1.0        0.0        0.0
 116000      .116  136908.011 -414624.28 277716.266 136908.011 -414624.28 277716.266 136908.011 -414624.28 277716.266        0.0
                          0.0        0.0 162334.308 -411493.66 249159.352 132463.443 -419293.44 286829.997 573827.967 -660653.01
                   86825.0441 551532.287 -692340.54 140808.255 551532.287 -692340.54 140808.255 -58.655735 -22.385785 81.0415207
                   .152351E-3 -.45992E-3 .336677E-3        0.0   145.4194   1.450566   1.566087   8.622515   9.309197     .16823
                         360.    .047195    .018595    .248656     .44499    .933046    .008579    .005624   3925.572   78.51144
                          1.0        0.0        1.0        0.0        0.0
 116500     .1165  206152.345 -431789.36 225637.014 206152.345 -431789.36 225637.014 206152.345 -431789.36 225637.015        0.0
                          0.0        0.0 212353.549 -411156.73 198803.183 194607.888 -428073.24 233465.353 623510.281 -609959.92
                   -13550.366 637941.705 -657426.37 19484.6688 637941.705 -657426.37 19484.6695 -146.48747 -48.146354 194.633821
                   .236825E-3 -.46314E-3 .255406E-3        0.0   145.4194   1.450566   1.566087   8.622515   9.309197     .16823
                         360.    .047195    .018595    .248656     .44499    .933046    .008579    .005624   3925.572   78.51144
                          1.0        0.0        1.0        0.0        0.0
 117000      .117  247686.599 -423178.14 175491.542 247686.599 -423178.14 175491.542 247686.599 -423178.14 175491.542        0.0
                          0.0        0.0 237758.869 -423515.14 185756.276 251960.441 -426312.46 174352.016 661274.014 -609271.42
                   -52002.594  670864.74 -598669.68 -72195.057  670864.74 -598669.68 -72195.057 -155.94989 -59.114721 215.064615
                   .272655E-3 -.45836E-3 .185698E-3        0.0   145.4194   1.450566   1.566087   8.622515   9.309197     .16823
                         360.    .047195    .018595    .248656     .44499    .933046    .008579    .005624   3925.572   78.51144
                          1.0        0.0        1.0        0.0        0.0
 117500     .1175  290338.848 -418663.93 128325.084 290338.848 -418663.93 128325.084 290338.848 -418663.93 128325.084        0.0
                          0.0        0.0 267503.613 -407392.02 139888.406 303108.891 -414054.45 110945.554 674895.633 -547280.43
                   -127615.21  709002.78 -546989.02 -162013.76 709002.779 -546989.02 -162013.76 -90.768945 -59.621946 150.390891
                   .334231E-3 -.45929E-3 .139572E-3        0.0   145.4194   1.450566   1.566087   8.622515   9.309197     .16823
                         360.    .047195    .018595    .248656     .44499    .933046    .008579    .005624   3925.572   78.51144
                          1.0        0.0        1.0        0.0        0.0
 118000      .118  338968.816 -388403.95 49435.1335 338968.816 -388403.95 49435.1335 338968.816 -388403.95 49435.1337        0.0
                          0.0        0.0  322426.94 -386593.29 64166.3459 346793.795 -391601.04 44807.2447 709020.225 -450759.63
                   -258260.59 727372.766 -437839.08 -289533.68 727372.766 -437839.08 -289533.68  -28.89362 -48.955696 77.8493159
                   .388026E-3 -.44855E-3 .532754E-4        0.0   145.4194   1.450566   1.566087   8.622515   9.309197     .16823
                         360.    .047195    .018595    .248656     .44499    .933046    .008579    .005624   3925.572   78.51144
                          1.0        0.0        1.0        0.0        0.0
 118500     .1185  375550.418 -355563.63 -19986.789 375550.418 -355563.63 -19986.789 375550.417 -355563.63 -19986.789        0.0
                          0.0        0.0 387798.918 -344164.87 -43634.046 381939.485 -359505.12 -22434.368  731963.79 -300530.83
                   -431432.96 731114.046 -335576.84 -395537.21 731114.046 -335576.84 -395537.21 -38.490548 -61.321805 99.8123524
                   .422971E-3 -.39403E-3 -.21666E-4        0.0   145.4194   1.450566   1.566087   8.622515   9.309197     .16823
                         360.    .047195    .018595    .248656     .44499    .933046    .008579    .005624   3925.572   78.51144
                          1.0        0.0        1.0        0.0        0.0
 119000      .119  392007.366 -314555.89 -77451.473 392007.366 -314555.89 -77451.473 392007.366 -314555.89 -77451.473        0.0
                          0.0        0.0 402905.405 -301642.81  -101262.6 407680.557 -318556.98 -89123.572 704548.215 -200380.21
                     -504168. 706563.259 -237104.42 -469458.84 706563.259 -237104.42 -469458.84 -140.70112 -81.302398 222.003518
                   .444552E-3 -.37722E-3 -.81882E-4        0.0   145.4194   1.450566   1.566087   8.622515   9.309197     .16823
                         360.    .047195    .018595    .248656     .44499    .933046    .008579    .005624   3925.572   78.51144
                          1.0        0.0        1.0        0.0        0.0
 119500     .1195   412467.55 -259928.49 -152539.06  412467.55 -259928.49 -152539.06  412467.55 -259928.49 -152539.06        0.0
                          0.0        0.0 368575.429 -264766.64 -103808.79  423383.18 -269764.92 -153618.26 633342.069 -160957.85
                   -472384.22 672396.042 -107389.43 -565006.61 672396.042 -107389.43 -565006.61 -85.284677 -84.882234 170.166911
                   .476031E-3 -.28948E-3 -.18653E-3        0.0   145.4194   1.450566   1.566087   8.622515   9.309197     .16823
                         360.    .047195    .018595    .248656     .44499    .933046    .008579    .005624   3925.572   78.51144
                          1.0        0.0        1.0        0.0        0.0
  % % % % % %   Suspended simulation;  plot data space exhausted;  SPY SPACE is required.   LIMBUF =  840000.
  % % % % % %   Suspended simulation;  plot data space exhausted;  SPY SPACE is required.   LIMBUF =  840000.
  +++  Time-sharing disabled.   Send  user-keyed interrupt to silence alarm.
   Current values.  INDBUF  INDBEG  LIMBUF  MFLUSH  NUMDCD  KCARD1  KCARD2
                    839994      50  840000    1007     230       1     231
Plot timespan now in memory (in sec) = 1.04985997E-01   1.19985000E-01
   ++++  Begin plot-data copy from memory to disk.   MFLUSH, INDBUF, N4, Tbeg,  Tend = 1008  839994       1  -1.00000E+00
1.00000E+19
 120000       .12  413071.499 -208390.65 -204680.85 413071.499 -208390.65 -204680.85 413071.499 -208390.65 -204680.85        0.0
                          0.0        0.0  396344.55 -201515.55   -194829. 428660.705 -214330.35 -214330.35 597860.098 -6686.5472
                   -591173.55 621462.148  -3709.797 -617752.35 621462.148 -3709.7972 -617752.35 23.4589022 -59.893688 36.4347853
                   .460267E-3 -.24404E-3 -.24533E-3        0.0   145.4194   1.450566   1.566087   8.622515   9.309197     .16823
                         360.    .047195    .018595    .248656     .44499    .933046    .008579    .005624   3925.572   78.51144
                          1.0        0.0        1.0        0.0        0.0

Extrema of output variables follow.   Order and column positioning are the same as for the preceding time-step loop output.
Variable maxima :  456269.162 446062.958 447133.252 456269.162 446062.958 447133.252 456269.162 542753.538 447133.252        0.0
                          0.0        0.0 477499.894 529686.404 486179.598 428660.705 428660.703 428660.703 795096.786 807676.248
                   860102.889 783222.106 778323.432  784045.73 783222.106 778323.432 784045.731 101.646497 544.015544 344.815393
                   .541166E-3 .531626E-3 .537395E-3        0.0   145.4194   1.450566   1.566087   8.622515   9.309197     .16823
                         360.    .047195    .018595    .248656     .44499    .933046    .008579    .005624   3925.572   78.51144
                          1.0        0.0        1.0        0.0        0.0
Times of maxima :     .079826    .066505    .113081    .079826    .066505    .113081    .079826    .048248    .113081        0.0
                          0.0        0.0    .079552    .048753    .073842        0.0    .006667    .113333    .058886    .104694
                      .071559     .05838    .105197    .071981     .05838    .105197    .071981    .065372    .047423    .057907
                      .079824    .066512    .113106        0.0        0.0        0.0        0.0        0.0        0.0        0.0
                          0.0        0.0        0.0        0.0        0.0        0.0        0.0        0.0        0.0        0.0
                          0.0        0.0        0.0        0.0        0.0
Variable minima :  -458209.41 -457639.83 -450542.77 -458209.41 -457639.83 -450542.77   -480120. -457639.83 -450542.77        0.0
                          0.0        0.0 -475233.38 -447691.58 -489141.03 -428660.71  -428660.7  -428660.7 -991262.18 -809817.77
                   -853463.45 -898535.55 -782122.32 -794212.57  -.10106E7 -782122.32 -794212.57  -465.2474 -212.11632 -178.14487
                   -.54149E-3 -.53809E-3 -.54148E-3        0.0   145.4194   1.450566   1.566087   8.622515   9.309197     .16823
                         360.    .047195    .018595    .248656     .44499    .933046    .008579    .005624   3925.572   78.51144
                          1.0        0.0        1.0        0.0        0.0
Times of minima :     .049253    .056357    .063701    .049253    .056357    .063701    .049247    .056357    .063701        0.0
                          0.0        0.0    .069332    .055851      .0637        .01    .016667    .103333    .048754    .055851
                      .061495    .049252    .055346    .061488    .048249    .055346    .061488    .048209    .049296    .047329
                      .069706    .056361    .063856        0.0        0.0        0.0        0.0        0.0        0.0        0.0
                          0.0        0.0        0.0        0.0        0.0        0.0        0.0        0.0        0.0        0.0
                          0.0        0.0        0.0        0.0        0.0

Blank card terminating all plot cards.            |BLANK PLOT

Memory storage figures for the preceding, now-completed data case.  -------------------------------  Present   Program
A value of  "-9999"  indicates that no figure is available.         28-Feb-22  19:04:00              figure     limit  (name)
     Size List 1.   Number of electric network nodes.                                                   37      6000  (LBUS)
     Size List 2.   Number of electric network branches.                                                39     10000  (LBRNCH)
     Size List 3.   Number of data values in R, L, C tables.                                            45    192000  (LDATA)
     Size List 4.   Number of electric network sources.                                                  3       900  (LEXCT)
     Size List 5.   Storage for [Y] and triangularized [Y].   No. times =    3     Factors =    66     189    420000  (LYMAT)
     Size List 6.   Number of entries in switch table.                  No. flops = 18                  21      1200  (LSWTCH)
     Size List 7.   Number of distinct ALPHANUMERIC data names plus program SPY variables.              25     15000  (LSIZE7)
     Size List 8.   History points of distributed lines.                                              1612    120000  (LPAST)
     Size List 9.   Number of nonlinear elements.                                                        0      2250  (LNONL)
     Size List 10.  Points of nonlinear characteristics.                                                 0      3800  (LCHAR)
     Size List 11.  Number of Type-59 S.M. outputs.                                                      0       720  (LSMOUT)
     Size List 12.  Total number of EMTP output variables.                                              55      2000  (LSIZ12)
     Size List 13.  Working space for batch/SPY plotting.                                            -9999     72800  (LSIZ13)
     Size List 14.  S.M./U.M. connections to TACS.                                                   -9999       510  (LBSTAC)
     Size List 15.  Character storage in bytes for MODELS.                                            3296     90000  (LCTACS)
     Size List 16.  Total number of Type-59 S.M. masses.                                                 0       800  (LIMASS)
     Size List 17.  Number of Type-59 Synchronous machines.                                              0        90  (LSYN)
     Size List 18.  Branch and switch power/energy outputs.                                              0       254  (MAXPE)
     Size List 19.  Total floating-point TACS table space.                                              23    120000  (LTACST)
     Size List 20.  Non-copied recursive convolution data.                                               0    100000  (LFSEM)
     Size List 21.  Total modal/phase [T] matrix storage.                                                9      3000  (LFD)
     Size List 22.  Total recursive convolution history.                                                 0     15000  (LHIST)
     Size List 23.  Giant vectors for renumbering, phasors;  also extrema accumulation.                  93    192000  (LSIZ23)
     Size List 24.  Peak phases of compensation for data.                                                0       120  (LCOMP)
     Size List 25.  Total table space for all U.M usage.                                             -9999     45000  (LSPCUM)
     Size List 26.  Square of max number of coupled phases.                                              9    260000  (LSIZ26)
     Size List 27.  Maximum number of MODELS top variables.                                             44       600  (LSIZ27)
     Size List 28.  MODELS.  Total work space is divided into INTEGER and REAL.  1st, REAL:           1780    210000  (LRTACS)
                             Second  and last,  statistics for INTEGER work space.                    6838         0  (LITACS)
     Size List 29.  RAM disk used by "TAPSAV" table saving (limit is "LABCOM" size LTLABL).          -9999       600  (LSIZ29)
     Size List 30.  Taku Noda frequency-dependent circuits.                                              0        19  (LSIZ30)
Timing figures characterizing central processor (CP) solution speed.  ----------------------------   CP sec  Wait sec  Real sec
     Data input time (through blank card ending branches) ....                                       0.031     0.000     0.031
     Node renumbering and phasor solution  ....                                                      0.000     0.000     0.000
     After phasor solution, but before time-step loop  ....                                          0.000     0.000     0.000
     Integration of equations (time-step loop)  ....                                                 1.078     0.000     1.078
     Plotting or STATISTICS termination overlays ....                                                0.000     0.000     0.000
                                                                                                    ---------------------------
                                                                                          Totals      1.109     0.000     1.109

