   ---   236   cards of disk file read into card cache cells  1   onward.
 Comment card is ignored.      |C   LBUS  LBRNCH   LDATA   LEXCT   LYMAT  LSWTCH
 Limit CIDEAL cards =   200    |CARDS        200 { Limit of CIDEAL will be 2 mor
 1st card (Lists  1-10).       |    6000   10000  192000     900  420000    120
 Comment card is ignored.      |C LSMOUT  LSIZ12  LSIZ13  LBSTAC  LCTACS  LIMASS
 2nd card (Lists 11-20).       |     720    2000   72800     510   90000     80
 Comment card is ignored.      |C    LFD   LHIST  LSIZ23   NCOMP  LSPCUM  LSIZ26
 3rd card (Lists 21-30).       |    3000   15000  192000     120   45000  26000
 4th card (Lists 31-32).       |     200     300     { Optional card for Lists
 Comment card is ignored.      |C  LWORK  LMARTI
 Supplemental offsets.         |  840000     742
 <===> Done with  "/"-card sorting by data class.    Remember that the source file appears different from interpreted input data.
Alternative Transients Program (ATP),  GNU Linux or DOS.  All rights reserved by Can/Am user group of Portland, Oregon, USA.
 Date (dd-mth-yy) and time of day (hh.mm.ss) = 28-Feb-22  19:55:28   Name of disk plot file is  draw6.3\bernal\energizacion3715.pl4
Consult the 860-page ATP Rule Book of the Can/Am EMTP User Group in Portland,  Oregon, USA.  Source code date is 12 August 2008.
Total size of LABCOM tables = 10913436 INTEGER words.  31 VARDIM  List Sizes follow:  6002  10K  192K  900  420K  1200  15K
  120K  2250  3800  720  2K  72800  510  90K  800  90  254  120K  100K  3K  15K  192K  120  45K  260K  600  210K  1100  60  200
--------------------------------------------------+--------------------------------------------------------------------------------
Descriptive interpretation of input data cards.   |  Input data card images are shown below, all 80 columns, character by character
                                                  0         1         2         3         4         5         6         7         8
                                                  012345678901234567890123456789012345678901234567890123456789012345678901234567890
--------------------------------------------------+--------------------------------------------------------------------------------
Comment card.   NUMDCD = 1.                       |C data:C:\ATP\ATPDRAW6.3\BERNAL\ENERGIZACION3715.ATP
Marker card preceding new EMTP data case.         |BEGIN NEW DATA CASE
Comment card.   NUMDCD = 3.                       |C --------------------------------------------------------
Comment card.   NUMDCD = 4.                       |C Generated by ATPDRAW  febrero, lunes 28, 2022
Comment card.   NUMDCD = 5.                       |C A Bonneville Power Administration program
Comment card.   NUMDCD = 6.                       |C by H. K. Høidalen at SEfAS/NTNU - NORWAY 1994-2016
Comment card.   NUMDCD = 7.                       |C --------------------------------------------------------
Comment card.   NUMDCD = 8.                       |C  dT  >< Tmax >< Xopt >< Copt ><Epsiln>
Misc. data.     1.000E-06   1.200E-01   5.000E+01 |   1.E-6     .12     50.
Misc. data.    500    1  0  1  1  0  0  0  0  0   |     500       1       0       1       1       0       0       0       0
  ///  Warning.  Nonzero XOPT or COPT differs from the power frequency of  6.00000000E+01  Hz.   Did the user really want this?
No TACS data,  but MODELS data begins (next).     |MODELS
      Another ordinary MODELS data card.          |OUTPUT
      Another ordinary MODELS data card.          |  AnVol
      Another ordinary MODELS data card.          |  LONG
      Another ordinary MODELS data card.          |  R0F
      Another ordinary MODELS data card.          |  R1F
      Another ordinary MODELS data card.          |  X0F
      Another ordinary MODELS data card.          |  X1F
      Another ordinary MODELS data card.          |  RDIVX
      Another ordinary MODELS data card.          |  RINSER
      Another ordinary MODELS data card.          |  CLOSE1
      Another ordinary MODELS data card.          |  RPpos
      Another ordinary MODELS data card.          |  RPcero
      Another ordinary MODELS data card.          |  LPpos
      Another ordinary MODELS data card.          |  LPcero
      Another ordinary MODELS data card.          |  CPpos
      Another ordinary MODELS data card.          |  CPcero
      Another ordinary MODELS data card.          |  Xp
      Another ordinary MODELS data card.          |  CR
      Another ordinary MODELS data card.          |  SIMET
      Another ordinary MODELS data card.          |  ENC1
      Another ordinary MODELS data card.          |  ENC2
      Another ordinary MODELS data card.          |  ENC1AS
      Another ordinary MODELS data card.          |  ENC2AS
      Another ordinary MODELS data card.          |MODEL DEFAULT
      Another ordinary MODELS data card.          |DATA AnVol,LONG,R0F,R1F,X0F,X1F,RDIVX,RINSER,CLOSE1,RPpos,RPcero,LPpos,LPcero
      Another ordinary MODELS data card.          |OUTPUT o1,o2,o3, o4, o5, o6, o7, o8, o9, o10, o11, o12, o13
      Another ordinary MODELS data card.          |VAR o1,o2,o3, o4, o5, o6, o7, o8, o9, o10, o11, o12, o13
      Another ordinary MODELS data card.          |INIT
      Another ordinary MODELS data card.          |  o1:=AnVol
      Another ordinary MODELS data card.          |  o2:=LONG
      Another ordinary MODELS data card.          |  o3:=R0F
      Another ordinary MODELS data card.          |  o4:=R1F
      Another ordinary MODELS data card.          |  o5:=X0F
      Another ordinary MODELS data card.          |  O6:=X1F
      Another ordinary MODELS data card.          |  o7:=RDIVX
      Another ordinary MODELS data card.          |  o8:=RINSER
      Another ordinary MODELS data card.          |  o9:=CLOSE1
      Another ordinary MODELS data card.          |  o10:=RPpos
      Another ordinary MODELS data card.          |  o11:=RPcero
      Another ordinary MODELS data card.          |  o12:=LPpos
      Another ordinary MODELS data card.          |  o13:=LPcero
      Another ordinary MODELS data card.          |
      Another ordinary MODELS data card.          |ENDINIT
      Another ordinary MODELS data card.          |EXEC
      Another ordinary MODELS data card.          |ENDEXEC
      Another ordinary MODELS data card.          |ENDMODEL
      Another ordinary MODELS data card.          |MODEL DEFAULT1
      Another ordinary MODELS data card.          |DATA CPpos,CPcero,Xp,CR,SIMET,ENC1,ENC2,ENC1AS,ENC2AS
      Another ordinary MODELS data card.          |OUTPUT o1, o2, o3, o4, o5, o6, o7, o8, o9
      Another ordinary MODELS data card.          |VAR o1, o2, o3, o4, o5, o6, o7, o8, o9
      Another ordinary MODELS data card.          |INIT
      Another ordinary MODELS data card.          |  o1:=CPpos
      Another ordinary MODELS data card.          |  o2:=CPcero
      Another ordinary MODELS data card.          |  o3:=Xp
      Another ordinary MODELS data card.          |  o4:=CR
      Another ordinary MODELS data card.          |  o5:=SIMET
      Another ordinary MODELS data card.          |  o6:=ENC1
      Another ordinary MODELS data card.          |  o7:=ENC2
      Another ordinary MODELS data card.          |  o8:=ENC1AS
      Another ordinary MODELS data card.          |  o9:=ENC2AS
      Another ordinary MODELS data card.          |
      Another ordinary MODELS data card.          |ENDINIT
      Another ordinary MODELS data card.          |EXEC
      Another ordinary MODELS data card.          |ENDEXEC
      Another ordinary MODELS data card.          |ENDMODEL
      Another ordinary MODELS data card.          |USE DEFAULT AS DEFAULT
      Another ordinary MODELS data card.          |DATA
      Another ordinary MODELS data card.          |  AnVol:=      0.0
      Another ordinary MODELS data card.          |  LONG:= 444.1976
      Another ordinary MODELS data card.          |  R0F:= 1.416541
      Another ordinary MODELS data card.          |  R1F:=  1.09448
      Another ordinary MODELS data card.          |  X0F:= 13.10665
      Another ordinary MODELS data card.          |  X1F:= 10.12675
      Another ordinary MODELS data card.          |  RDIVX:= 0.108078
      Another ordinary MODELS data card.          |  RINSER:=     420.
      Another ordinary MODELS data card.          |  CLOSE1:= 0.058126
      Another ordinary MODELS data card.          |  RPpos:= 0.020307
      Another ordinary MODELS data card.          |  RPcero:= 0.338604
      Another ordinary MODELS data card.          |  LPpos:= 0.239443
      Another ordinary MODELS data card.          |  LPcero:= 1.073707
      Another ordinary MODELS data card.          |OUTPUT
      Another ordinary MODELS data card.          |  AnVol:=o1
      Another ordinary MODELS data card.          |  LONG:=o2
      Another ordinary MODELS data card.          |  R0F:=o3
      Another ordinary MODELS data card.          |  R1F:=o4
      Another ordinary MODELS data card.          |  X0F:=o5
      Another ordinary MODELS data card.          |  X1F:=o6
      Another ordinary MODELS data card.          |  RDIVX:=o7
      Another ordinary MODELS data card.          |  RINSER:=o8
      Another ordinary MODELS data card.          |  CLOSE1:=o9
      Another ordinary MODELS data card.          |  RPpos:=o10
      Another ordinary MODELS data card.          |  RPcero:=o11
      Another ordinary MODELS data card.          |  LPpos:=o12
      Another ordinary MODELS data card.          |  LPcero:=o13
      Another ordinary MODELS data card.          |ENDUSE
      Another ordinary MODELS data card.          |USE DEFAULT1 AS DEF
      Another ordinary MODELS data card.          |DATA
      Another ordinary MODELS data card.          |  CPpos:= 0.015792
      Another ordinary MODELS data card.          |  CPcero:= 0.008759
      Another ordinary MODELS data card.          |  Xp:= 698.1155
      Another ordinary MODELS data card.          |  CR:= 13.96231
      Another ordinary MODELS data card.          |  SIMET:=      0.0
      Another ordinary MODELS data card.          |  ENC1:=      0.0
      Another ordinary MODELS data card.          |  ENC2:=      0.0
      Another ordinary MODELS data card.          |  ENC1AS:=      0.0
      Another ordinary MODELS data card.          |  ENC2AS:=      0.0
      Another ordinary MODELS data card.          |OUTPUT
      Another ordinary MODELS data card.          |  CPpos:=o1
      Another ordinary MODELS data card.          |  CPcero:=o2
      Another ordinary MODELS data card.          |  Xp:=o3
      Another ordinary MODELS data card.          |  CR:=o4
      Another ordinary MODELS data card.          |  SIMET:=o5
      Another ordinary MODELS data card.          |  ENC1:=o6
      Another ordinary MODELS data card.          |  ENC2:=o7
      Another ordinary MODELS data card.          |  ENC1AS:=o8
      Another ordinary MODELS data card.          |  ENC2AS:=o9
      Another ordinary MODELS data card.          |ENDUSE
      Another ordinary MODELS data card.          |RECORD
      Another ordinary MODELS data card.          |  DEFAULT.o1 AS AnVOL
      Another ordinary MODELS data card.          |  DEFAULT.o2 AS LONG
      Another ordinary MODELS data card.          |  DEFAULT.o3 AS R0F
      Another ordinary MODELS data card.          |  DEFAULT.o4 AS R1F
      Another ordinary MODELS data card.          |  DEFAULT.o5 AS X0F
      Another ordinary MODELS data card.          |  DEFAULT.o6 AS X1F
      Another ordinary MODELS data card.          |  DEFAULT.o7 AS RDIVX
      Another ordinary MODELS data card.          |  DEFAULT.o8 AS RINSER
      Another ordinary MODELS data card.          |  DEFAULT.o9 AS CLOSE1
      Another ordinary MODELS data card.          |  DEFAULT.o10 AS RPpos
      Another ordinary MODELS data card.          |  DEFAULT.o11 AS RPcero
      Another ordinary MODELS data card.          |  DEFAULT.o12 AS LPpos
      Another ordinary MODELS data card.          |  DEFAULT.o13 AS LPcero
      Another ordinary MODELS data card.          |  DEF.o1 AS CPpos
      Another ordinary MODELS data card.          |  DEF.o2 AS CPcero
      Another ordinary MODELS data card.          |  DEF.o3 AS Xp
      Another ordinary MODELS data card.          |  DEF.o4 AS CR
      Another ordinary MODELS data card.          |  DEF.o5 AS SIMET
      Another ordinary MODELS data card.          |  DEF.o6 AS ENC1
      Another ordinary MODELS data card.          |  DEF.o7 AS ENC2
      Another ordinary MODELS data card.          |  DEF.o8 AS ENC1AS
      Another ordinary MODELS data card.          |  DEF.o9 AS ENC2AS
Termination of data for Laurent Dube`s MODELS.    |ENDMODELS
Comment card.   NUMDCD = 153.                     |C        1         2         3         4         5         6         7         8
Comment card.   NUMDCD = 154.                     |C 345678901234567890123456789012345678901234567890123456789012345678901234567890
Optional blank card follows last of MODELS data.  |BLANK MODELS
Comment card.   NUMDCD = 156.                     |C < n1 >< n2 ><ref1><ref2>< R  >< L  >< C  >
Comment card.   NUMDCD = 157.                     |C < n1 >< n2 ><ref1><ref2>< R  >< A  >< B  ><Leng><><>0
1st of coupled R-L.   1.41650E+00  4.17198E-02    |51IFUENASB1A              1.416513.106647612
2nd coil. 1.095E+00 3.223E-02 0.000E+00 0.000E+00 |52IFUENBSB1B              1.094510.126749876
Zca, Zcc= 1.073E-01 3.162E-03 1.202E+00 3.540E-02 |53IFUENCSB1C
Series R-L-C.   1.000E+09  0.000E+00  0.000E+00   |  SB1A                      1.E9                                               0
Series R-L-C.   1.000E+09  0.000E+00  0.000E+00   |  SB1B                      1.E9                                               0
Series R-L-C.   1.000E+09  0.000E+00  0.000E+00   |  SB1C                      1.E9                                               0
Series R-L-C.   1.000E+09  0.000E+00  0.000E+00   |  RSNSHA                    1.E9                                               0
Series R-L-C.   1.000E+09  0.000E+00  0.000E+00   |  RSNSHB                    1.E9                                               0
Series R-L-C.   1.000E+09  0.000E+00  0.000E+00   |  RSNSHC                    1.E9                                               0
Series R-L-C.   1.000E+09  0.000E+00  0.000E+00   |  RSNNHA                    1.E9                                               0
Series R-L-C.   1.000E+09  0.000E+00  0.000E+00   |  RSNNHB                    1.E9                                               0
Series R-L-C.   1.000E+09  0.000E+00  0.000E+00   |  RSNNHC                    1.E9                                               0
Series R-L-C.   1.000E+09  0.000E+00  0.000E+00   |  SE2A                      1.E9                                               0
Series R-L-C.   1.000E+09  0.000E+00  0.000E+00   |  SE2B                      1.E9                                               0
Series R-L-C.   1.000E+09  0.000E+00  0.000E+00   |  SE2C                      1.E9                                               0
Series R-L-C.   2.500E+02  0.000E+00  3.000E-10   |  X0001B                    250.       .0003                                   0
Series R-L-C.   2.500E+02  0.000E+00  3.000E-10   |  X0002B                    250.       .0003                                   0
Series R-L-C.   1.000E-06  0.000E+00  0.000E+00   |  X0001ALN1A               1.E-6                                               0
Series R-L-C.   1.000E-06  0.000E+00  0.000E+00   |  SB1A  X0002A             1.E-6                                               0
Series R-L-C.   1.000E-06  0.000E+00  0.000E+00   |  X0001BLN1B               1.E-6                                               0
Series R-L-C.   1.000E-06  0.000E+00  0.000E+00   |  SB1B  X0002B             1.E-6                                               0
Series R-L-C.   1.000E-06  0.000E+00  0.000E+00   |  X0001CLN1C               1.E-6                                               0
Series R-L-C.   1.000E-06  0.000E+00  0.000E+00   |  SB1C  X0002C             1.E-6                                               0
Series R-L-C.   4.200E+02  0.000E+00  0.000E+00   |  XX0005X0002A              420.                                               0
Series R-L-C.   4.200E+02  0.000E+00  0.000E+00   |  XX0003X0002B              420.                                               0
Series R-L-C.   4.200E+02  0.000E+00  0.000E+00   |  XX0004X0002C              420.                                               0
Series R-L-C.   2.500E+02  0.000E+00  3.000E-10   |  X0001A                    250.       .0003                                   0
Series R-L-C.   1.000E+06  0.000E+00  0.000E+00   |  X0001AX0002A              1.E6                                               0
Series R-L-C.   1.000E+06  0.000E+00  0.000E+00   |  X0001BX0002B              1.E6                                               0
Series R-L-C.   1.000E+06  0.000E+00  0.000E+00   |  X0001CX0002C              1.E6                                               0
Series R-L-C.   2.500E+02  0.000E+00  3.000E-10   |  X0002C                    250.       .0003                                   0
Series R-L-C.   2.500E+02  0.000E+00  3.000E-10   |  X0002A                    250.       .0003                                   0
Series R-L-C.   2.500E+02  0.000E+00  3.000E-10   |  X0001C                    250.       .0003                                   0
Series R-L-C.   1.250E+02  0.000E+00  6.000E-10   |  X0001AX0002A              125.       .0006                                   0
Series R-L-C.   1.250E+02  0.000E+00  6.000E-10   |  X0001BX0002B              125.       .0006                                   0
Series R-L-C.   1.250E+02  0.000E+00  6.000E-10   |  X0001CX0002C              125.       .0006                                   0
 3.386E-01 1.074E+00 8.760E-03 6.246E+02 2.431E-03|-1LN1A  VFF2A              .33861.0737.00876 444.2 0 0                         0
 2.031E-02 2.394E-01 1.579E-02 2.197E+02 1.541E-03|-2LN1B  VFF2B             .02031.23944.01579 444.2 0 0                         0
3rd or later transposed distributed phase.        |-3LN1C  VFF2C                                                                  0
Blank card ending branches.  IBR, NTOT = 39  31   |BLANK BRANCH
Comment card.   NUMDCD = 198.                     |C < n 1>< n 2>< Tclose ><Top/Tde ><   Ie   ><Vf/CLOP ><  type  >
Switch.  -1.00E+00  1.00E+01  0.00E+00  0.00E+00  |  LN1A  COMPA        -1.       10.                                             0
Switch.  -1.00E+00  1.00E+01  0.00E+00  0.00E+00  |  LN1B  COMPB        -1.       10.                                             0
Switch.  -1.00E+00  1.00E+01  0.00E+00  0.00E+00  |  LN1C  COMPC        -1.       10.                                             0
Switch.  -1.00E+00  1.00E+01  0.00E+00  0.00E+00  |  VFF2A RSNNHA       -1.       10.                                             0
Switch.  -1.00E+00  1.00E+01  0.00E+00  0.00E+00  |  VFF2B RSNNHB       -1.       10.                                             0
Switch.  -1.00E+00  1.00E+01  0.00E+00  0.00E+00  |  VFF2C RSNNHC       -1.       10.                                             0
Switch.   2.00E+00 -1.00E+00  0.00E+00  0.00E+00  |  VFF2A SE2A          2.       -1.                                             0
Switch.   2.00E+00 -1.00E+00  0.00E+00  0.00E+00  |  VFF2B SE2B          2.       -1.                                             0
Switch.   2.00E+00 -1.00E+00  0.00E+00  0.00E+00  |  VFF2C SE2C          2.       -1.                                             0
Switch.   5.81E-02  1.00E+03  0.00E+00  0.00E+00  |  X0001BXX0003.058125943      1.E3                                             0
Switch.   5.81E-02  1.00E+03  0.00E+00  0.00E+00  |  X0001CXX0004.058125943      1.E3                                             0
Switch.   6.56E-02  1.00E+03  0.00E+00  0.00E+00  |  XX0005X0002A.065625943      1.E3                                             0
Switch.   6.56E-02  1.00E+03  0.00E+00  0.00E+00  |  XX0003X0002B.065625943      1.E3                                             0
Switch.   6.56E-02  1.00E+03  0.00E+00  0.00E+00  |  XX0004X0002C.065625943      1.E3                                             0
Switch.   5.81E-02  1.00E+03  0.00E+00  0.00E+00  |  X0001AXX0005.058125943      1.E3                                             0
Permanently-closed switch used for metering.      |  VFUENAIFUENA                                        MEASURING                1
Permanently-closed switch used for metering.      |  VFUENBIFUENB                                        MEASURING                1
Permanently-closed switch used for metering.      |  VFUENCIFUENC                                        MEASURING                1
Permanently-closed switch used for metering.      |  COMPA RSNSHA                                        MEASURING                1
Permanently-closed switch used for metering.      |  COMPB RSNSHB                                        MEASURING                1
Permanently-closed switch used for metering.      |  COMPC RSNSHC                                        MEASURING                1
Blank card ending switches.   KSWTCH = 21.        |BLANK SWITCH
Comment card.   NUMDCD = 221.                     |C < n 1><>< Ampl.  >< Freq.  ><Phase/T0><   A1   ><   T1   >< TSTART >< TSTOP  >
Source.   4.29E+05  5.00E+01  0.00E+00 -1.00E+00  |14VFUENA  428660.705       50.                                     -1.      100.
Source.   4.29E+05  5.00E+01 -1.20E+02 -1.00E+00  |14VFUENB  428660.705       50.     -120.                           -1.      100.
Source.   4.29E+05  5.00E+01 -2.40E+02 -1.00E+00  |14VFUENC  428660.705       50.     -240.                           -1.      100.
Blank card ends electric sources.  KCONST = 3     |BLANK SOURCE
Pi-equivalent branches of distributed circuits are added to the table of List Size 3 between indices  40   and  45.

Sinusoidal steady-state phasor solution, branch by branch.   All flows are away from a bus,  and the real part,  magnitude,  or  "P"
is printed above the imaginary part,  the angle,  or  "Q".   The first solution frequency  =  5.00000000E+01  Hertz.
  Bus K                        Phasor  node  voltage              Phasor  branch  current               Power flow       Power loss
             Bus M         Rectangular            Polar          Rectangular            Polar            P  and  Q        P  and  Q

 IFUENA                    428660.705       428660.705      .42898852146133  .44582680786451      91945.261023261  .10877225419502
                                  0.0              0.0      .12136882245897       15.7971938      -26013.02250014        1.0064042

            SB1A      428661.46454377  428661.46456715      -.4289885214613  .44582680786451      -91945.15225101
                      -4.477097632694       -0.0005984       -.121368822459     -164.2028062      26014.028904355

 IFUENB                  -214330.3525       428660.705      -.1093857772466  .44582680786737      91945.261023375  .10877225419502
                      -371231.0601341     -120.0000000      -.4321993687517     -104.2028062        -26013.022502        1.0064042

            SB1B      -214334.6095522  428661.46456715      .10938577724656  .44582680786737      -91945.15225112
                      -371229.4793695     -120.0005984      .43219936875171       75.7971938      26014.028906209

 IFUENC                  -214330.3525       428660.705      -.3196027442155  .44582680786883      91945.261023749  .10877225419451
                      371231.06013415      120.0000000        .310830546286      135.7971938      -26013.02250182        1.0064042

            SB1C      -214326.8549916  428661.46456715      .31960274421547  .44582680786883      -91945.15225149
                      371233.95646716      119.9994016       -.310830546286      -44.2028062      26014.028906037

 SB1A                 428661.46454377  428661.46456715      .42866146454E-3  .42866146457E-3      91.875325602428  91.875325602428
                      -4.477097632694       -0.0005984      -.4477097633E-8       -0.0005984      -.232404665E-19        0.0000000

            TERRA                 0.0              0.0      -.4286614645E-3  .42866146457E-3                  0.0
                                  0.0              0.0      .44770976327E-8      179.9994016                  0.0

 SB1B                 -214334.6095522  428661.46456715      -.2143346096E-3  .42866146457E-3      91.875325602428  91.875325602428
                      -371229.4793695     -120.0005984      -.3712294794E-3     -120.0005984      .9020562075E-16        0.0000000

            TERRA                 0.0              0.0      .21433460955E-3  .42866146457E-3                  0.0
                                  0.0              0.0      .37122947937E-3       59.9994016                  0.0

 SB1C                 -214326.8549916  428661.46456715       -.214326855E-3  .42866146457E-3      91.875325602428  91.875325602428
                      371233.95646716      119.9994016      .37123395647E-3      119.9994016      .3722716579E-14        0.0000000

            TERRA                 0.0              0.0      .21432685499E-3  .42866146457E-3                  0.0
                                  0.0              0.0      -.3712339565E-3      -60.0005984                  0.0

 RSNSHA                35.30755652615  182.23760657648      .35307556526E-7  .18223760658E-6      .16605272625E-4  .16605272625E-4
                      -178.7845678544      -78.8286027      -.1787845679E-6      -78.8286027      -.537667398E-22        0.0000000

            TERRA                 0.0              0.0      -.3530755653E-7  .18223760658E-6                  0.0
                                  0.0              0.0      .17878456785E-6      101.1713973                  0.0

 RSNSHB               -172.4857558296  182.23760657648      -.1724857558E-6  .18223760658E-6      .16605272625E-4  .16605272625E-4
                      58.815043029988      161.1713973       .5881504303E-7      161.1713973      -.172880748E-21        0.0000000

            TERRA                 0.0              0.0      .17248575583E-6  .18223760658E-6                  0.0
                                  0.0              0.0      -.5881504303E-7      -18.8286027                  0.0

 RSNSHC               137.17819930344  182.23760657648       .1371781993E-6  .18223760658E-6      .16605272625E-4  .16605272625E-4
                      119.96952482439       41.1713973      .11996952482E-6       41.1713973      -.712202507E-21        0.0000000

            TERRA                 0.0              0.0      -.1371781993E-6  .18223760658E-6                  0.0
                                  0.0              0.0      -.1199695248E-6     -138.8286027                  0.0

 RSNNHA               37.706698328012   205.8880486032      .37706698328E-7   .2058880486E-6      .21194944279E-4  .21194944279E-4
                      -202.4057643913      -79.4471882      -.2024057644E-6      -79.4471882      -.259734712E-21        0.0000000

            TERRA                 0.0              0.0      -.3770669833E-7   .2058880486E-6                  0.0
                                  0.0              0.0      .20240576439E-6      100.5528118                  0.0

 RSNNHB               -194.1418829993   205.8880486032       -.194141883E-6   .2058880486E-6      .21194944279E-4  .21194944279E-4
                      68.547923550763      160.5528118      .68547923551E-7      160.5528118       -.51285198E-21        0.0000000

            TERRA                 0.0              0.0        .194141883E-6   .2058880486E-6                  0.0
                                  0.0              0.0      -.6854792355E-7      -19.4471882                  0.0

 RSNNHC               156.43518467128   205.8880486032      .15643518467E-6   .2058880486E-6      .21194944279E-4  .21194944279E-4
                      133.85784084055       40.5528118      .13385784084E-6       40.5528118       .830489335E-21        0.0000000

            TERRA                 0.0              0.0      -.1564351847E-6   .2058880486E-6                  0.0
                                  0.0              0.0      -.1338578408E-6     -139.4471882                  0.0

 X0001B               -172.4857559738  182.23760658008      -.5543570204E-5  .17175489776E-4      .36874681132E-7  .36874681132E-7
                      58.815042618346      161.1713975       -.162562689E-4     -108.8299525      -.0015650100739       -0.0015650

            TERRA                 0.0              0.0      .55435702036E-5  .17175489776E-4                  0.0
                                  0.0              0.0      .16256268897E-4       71.1700475                  0.0

 X0002B               -214334.6095521  428661.46456672      .03498707817153  .04040039122758      .20402395141718  .20402395141718
                      -371229.4793691     -120.0005984       -.020201385407      -30.0019484      -8659.045433938    -8659.0454339

            TERRA                 0.0              0.0      -.0349870781715  .04040039122758                  0.0
                                  0.0              0.0      .02020138540697      149.9980516                  0.0

 X0001A               35.307556954728  182.23760658008      .42857836035637  .43615909647981      .32837274965528  .95117378721E-7
                      -178.7845677734      -78.8286025      .08096509418465       10.6979828      -39.74093829381        0.0000000

            LN1A       35.30755652615  182.23760657648      -.4285783603564  .43615909647981      -.3283726545379
                      -178.7845678544      -78.8286027      -.0809650941846     -169.3020172       39.74093829381

 SB1A                 428661.46454377  428661.46456715      .42858300730586  .44543662435403      91858.238105108  .99206893367E-7
                      -4.477097632694       -0.0005984      .12136882698854       15.8113942      -26014.02896742              0.0

            X0002A    428661.46454334  428661.46456672      -.4285830073059  .44543662435403      -91858.23810501
                      -4.477097754063       -0.0005984      -.1213688269885     -164.1886058      26014.028967418

 X0001B               -172.4857559738  182.23760658008      -.1441713379791  .43615909423925      .32837148569486  .95117377743E-7
                      58.815042618346      161.1713975      -.4116422971379     -109.3020154      -39.74093810009        0.0000000

            LN1B      -172.4857558296  182.23760657648      .14417133797906  .43615909423925      -.3283713905775
                      58.815043029988      161.1713973      .41164229713786       70.6979846      39.740938100091

 SB1B                 -214334.6095522  428661.46456715      -.1091975718737  .44543481256446      91858.767990559  .99206090454E-7
                      -371229.4793695     -120.0005984       -.431842636317     -104.1905959      -26010.73254395        0.0000000

            X0002B    -214334.6095521  428661.46456672      .10919757187366  .44543481256446      -91858.76799046
                      -371229.4793691     -120.0005984      .43184263631701       75.8094041      26010.732543955

 X0001C               137.17819901903  182.23760658008      -.2844070081665  .43615909270351      .32837249840127  .95117377074E-7
                      119.96952515507       41.1713975      .33067719584778      130.6979831      -39.74093795178              0.0

            LN1C      137.17819930344  182.23760657648      .28440700816645  .43615909270351      -.3283724032839
                      119.96952482439       41.1713973      -.3306771958478      -49.3020169      39.740937951783

 SB1C                 -214326.8549916  428661.46456715      -.3194145392627  .44544726873444      91859.853726412  .99211632687E-7
                      371233.95646716      119.9994016      .31047966331244      135.8126704       -26016.6966935              0.0

            X0002C    -214326.8549913  428661.46456672      .31941453926265  .44544726873444      -91859.85372631
                      371233.95646685      119.9994016      -.3104796633124      -44.1873296      26016.696693503

 XX0005               428661.46454334  428661.46456672                  0.0              0.0                  0.0              0.0
                      -4.477097754063       -0.0005984                  0.0              0.0                  0.0              0.0

            X0002A    428661.46454334  428661.46456672                  0.0              0.0                  0.0
                      -4.477097754063       -0.0005984                  0.0              0.0                  0.0

 XX0003               -214334.6095521  428661.46456672                  0.0              0.0                  0.0              0.0
                      -371229.4793691     -120.0005984                  0.0              0.0                  0.0              0.0

            X0002B    -214334.6095521  428661.46456672                  0.0              0.0                  0.0
                      -371229.4793691     -120.0005984                  0.0              0.0                  0.0

 XX0004               -214326.8549913  428661.46456672                  0.0              0.0                  0.0              0.0
                      371233.95646685      119.9994016                  0.0              0.0                  0.0              0.0

            X0002C    -214326.8549913  428661.46456672                  0.0              0.0                  0.0
                      371233.95646685      119.9994016                  0.0              0.0                  0.0

 X0001A               35.307556954728  182.23760658008      .16850126938E-4  .17175489776E-4      .36874681132E-7  .36874681132E-7
                      -178.7845677734      -78.8286025      .33272618246E-5       11.1700475      -.0015650100739       -0.0015650

            TERRA                 0.0              0.0      -.1685012694E-4  .17175489776E-4                  0.0
                                  0.0              0.0      -.3327261825E-5     -168.8299525                  0.0

 X0001A               35.307556954728  182.23760658008      -.4286261569864   .4286261924288      -7.551289482198  91860.206418007
                      -178.7845677734      -78.8286025        -.17430747E-3     -179.9766998      38.318948292058        0.0000000

            X0002A    428661.46454334  428661.46456672      .42862615698639   .4286261924288      91867.757707489
                      -4.477097754063       -0.0005984      .17430747002E-3        0.0233002      -38.31894829206

 X0001B               -172.4857559738  182.23760658008      .21416212379609   .4286261924288      -7.551289482198  91860.206418007
                      58.815042618346      161.1713975      .37128829441172       60.0233002      38.318948292058        0.0000000

            X0002B    -214334.6095521  428661.46456672      -.2141621237961   .4286261924288      91867.757707489
                      -371229.4793691     -120.0005984      -.3712882944117     -119.9766998      -38.31894829206

 X0001C               137.17819901903  182.23760658008       .2144640331903   .4286261924288      -7.551289482198  91860.206418007
                      119.96952515507       41.1713975      -.3711139869417      -59.9766998      38.318948292058        0.0000000

            X0002C    -214326.8549913  428661.46456672      -.2144640331903   .4286261924288      91867.757707489
                      371233.95646685      119.9994016       .3711139869417      120.0233002      -38.31894829206

 X0002C               -214326.8549913  428661.46456672      -.0349884520398  .04040039122758      .20402395141731  .20402395141731
                      371233.95646685      119.9994016      -.0201990057972     -150.0019484      -8659.045433938    -8659.0454339

            TERRA                 0.0              0.0      .03498845203984  .04040039122758                  0.0
                                  0.0              0.0      .02019900579725       29.9980516                  0.0

 X0002A               428661.46454334  428661.46456672       .1373868314E-5  .04040039122758       .2040239514177   .2040239514177
                      -4.477097754063       -0.0005984      .04040039120422       89.9980516      -8659.045433938    -8659.0454339

            TERRA                 0.0              0.0      -.1373868314E-5  .04040039122758                  0.0
                                  0.0              0.0      -.0404003912042      -90.0019484                  0.0

 X0001C               137.17819901903  182.23760658008      -.1130655673E-4  .17175489776E-4      .36874681133E-7  .36874681133E-7
                      119.96952515507       41.1713975      .12929007073E-4      131.1700475      -.0015650100739       -0.0015650

            TERRA                 0.0              0.0      .11306556734E-4  .17175489776E-4                  0.0
                                  0.0              0.0      -.1292900707E-4      -48.8299525                  0.0

 X0001A               35.307556954728  182.23760658008      .30952517247E-4   .0807941338138      7.2229180451391  .40798075367017
                      -178.7845677734      -78.8286025      -.0807941278848      -89.9780498      1.4235547197412   -17315.2409688

            X0002A    428661.46454334  428661.46456672      -.3095251725E-4   .0807941338138      -6.814937291469
                      -4.477097754063       -0.0005984      .08079412788479       90.0219502      -17316.66452351

 X0001B               -172.4857559738  182.23760658008      -.0699852434835   .0807941338138      7.2229180451391  .40798075367063
                      58.815042618346      161.1713975      .04037025827615      150.0219502      1.4235547197412   -17315.2409688

            X0002B    -214334.6095521  428661.46456672      .06998524348346   .0807941338138      -6.814937291468
                      -371229.4793691     -120.0005984      -.0403702582761      -29.9780498      -17316.66452351

 X0001C               137.17819901903  182.23760658008      .06995429096622   .0807941338138      7.2229180451391  .40798075366979
                      119.96952515507       41.1713975      .04042386960864       30.0219502      1.4235547197412   -17315.2409688

            X0002C    -214326.8549913  428661.46456672      -.0699542909662   .0807941338138      -6.814937291469
                      371233.95646685      119.9994016      -.0404238696086     -149.9780498      -17316.66452351

 LN1A                  35.30755652615  182.23760657648      .42857831814452  .43615909160834      .32835428116259  .32833308621831
                      -178.7845678544      -78.8286027      .08096529138485       10.6980093      -39.74093800173      -39.7409380

            VFF2A     37.706698328012   205.8880486032       -.377066983E-7  .20588804859E-6      -.2119494428E-4
                      -202.4057643913      -79.4471882      .20240576438E-6      100.5528118        -.2876091E-14

 LN1B                 -172.4857558296  182.23760657648      -.1441711599082  .43615909160834      .32835428116257   .3283330862183
                      58.815043029988      161.1713973      -.4116423567168     -109.3019907      -39.74093800173      -39.7409380

            VFF2B     -194.1418829993   205.8880486032        .194141883E-6  .20588804848E-6      -.2119494427E-4
                      68.547923550763      160.5528118      -.6854792316E-7      -19.4471881       .375593841E-13

 LN1C                 137.17819930344  182.23760657648      -.2844071582363  .43615909160834      .32835428116259  .32833308621831
                      119.96952482439       41.1713973      .33067706533193      130.6980093      -39.74093800173      -39.7409380

            VFF2C     156.43518467128   205.8880486032      -.1564351847E-6  .20588804867E-6      -.2119494429E-4
                      133.85784084055       40.5528118      -.1338578409E-6     -139.4471881       .290957595E-14
     Total network loss  P-loss  by summing injections =   2.758558732450E+05

Output for steady-state phasor switch currents.
      Node-K    Node-M            I-real            I-imag            I-magn          Degrees        Power            Reactive
      LN1A      COMPA         4.55209114E-08   -2.02640578E-07    2.07690532E-07     -77.3393    1.89181201E-05   -4.91846407E-07
      LN1B      COMPB        -2.05417931E-07    5.57783985E-08    2.12856186E-07     164.8084    1.93561380E-05   -1.23034260E-06
      LN1C      COMPC         1.67258242E-07    1.17909471E-07    2.04641059E-07      35.1821    1.85448639E-05    1.94564148E-06
      VFF2A     RSNNHA        3.77066980E-08   -2.02405764E-07    2.05888049E-07     -79.4472    2.11949443E-05    2.86773583E-14
      VFF2B     RSNNHB       -1.94141883E-07    6.85479232E-08    2.05888048E-07     160.5528    2.11949443E-05   -3.32051943E-14
      VFF2C     RSNNHC        1.56435185E-07    1.33857841E-07    2.05888049E-07      40.5528    2.11949443E-05   -6.47334778E-15
      VFF2A     SE2A              Open              Open              Open             Open          Open              Open
      VFF2B     SE2B              Open              Open              Open             Open          Open              Open
      VFF2C     SE2C              Open              Open              Open             Open          Open              Open
      X0001B    XX0003            Open              Open              Open             Open          Open              Open
      X0001C    XX0004            Open              Open              Open             Open          Open              Open
      XX0005    X0002A            Open              Open              Open             Open          Open              Open
      XX0003    X0002B            Open              Open              Open             Open          Open              Open
      XX0004    X0002C            Open              Open              Open             Open          Open              Open
      X0001A    XX0005            Open              Open              Open             Open          Open              Open
      VFUENA    IFUENA        4.28988521E-01    1.21368822E-01    4.45826808E-01      15.7972    9.19452610E+04   -2.60130225E+04
      VFUENB    IFUENB       -1.09385777E-01   -4.32199369E-01    4.45826808E-01    -104.2028    9.19452610E+04   -2.60130225E+04
      VFUENC    IFUENC       -3.19602744E-01    3.10830546E-01    4.45826808E-01     135.7972    9.19452610E+04   -2.60130225E+04
      COMPA     RSNSHA        4.55209114E-08   -2.02640578E-07    2.07690532E-07     -77.3393    1.89181201E-05   -4.91846407E-07
      COMPB     RSNSHB       -2.05417931E-07    5.57783985E-08    2.12856186E-07     164.8084    1.93561380E-05   -1.23034260E-06
      COMPC     RSNSHC        1.67258242E-07    1.17909471E-07    2.04641059E-07      35.1821    1.85448639E-05    1.94564148E-06

Solution at nodes with known voltage.   Nodes that are shorted together by switches are shown as a group of names, with the printed
result applying to the composite group.   The entry "MVA" is  SQRT( P**2 + Q**2 )  in units of power,  while  "P.F."  is the
associated power factor.
              Node                Source  node  voltage             Injected  source  current              Injected  source  power
              name         Rectangular            Polar          Rectangular            Polar            P  and  Q    MVA and P.F.

               VFUENA
              IFUENA       428660.705       428660.705      .42898852146214  .44582680786504      91945.261023434  95554.216883664
                                  0.0              0.0      .12136882245807       15.7971938      -26013.02249995        0.9622313

               VFUENB
              IFUENB     -214330.3525       428660.705      -.1093857772455  .44582680786908      91945.261023637  95554.216884529
                      -371231.0601341     -120.0000000      -.4321993687537     -104.2028062      -26013.02250241        0.9622313

               VFUENC
              IFUENC     -214330.3525       428660.705      -.3196027442163  .44582680786946      91945.261023841   95554.21688461
                      371231.06013415      120.0000000      .31083054628599      135.7971938      -26013.02250199        0.9622313

  +++  Node  "COMPC "  has no connected linear branches.  Add (to ground) the conductance  G = 1.00000000E-18  mhos.
  +++  Node  "COMPB "  has no connected linear branches.  Add (to ground) the conductance  G = 1.00000000E-18  mhos.
  +++  Node  "COMPA "  has no connected linear branches.  Add (to ground) the conductance  G = 1.00000000E-18  mhos.
Card of names for time-step loop output.          |  LN1A  LN1B  LN1C  COMPA COMPB COMPC SB1A  SB1B  SB1C  SE2A  SE2B  SE2C  VFF2A
Card of names for time-step loop output.          |  VFF2B VFF2C IFUENAIFUENBIFUENC
Card of names for time-step loop output.          |-5VFF2A VFF2B VFF2B VFF2C VFF2C VFF2A LN1A  LN1B  LN1B  LN1C  LN1C  LN1A
Card of names for time-step loop output.          |-5SB1A  SB1B  SB1B  SB1C  SB1C  SB1A
Blank card ending requests for output variables.  |BLANK OUTPUT

Column headings for the  55   EMTP output variables follow.  These are divided among the 5 possible classes as follows ....
  First  27     output variables are electric-network voltage differences (upper voltage minus lower voltage);
  Next   6     output variables are branch currents (flowing from the upper node to the lower node);
  Next   22     output variables belong to MODELS (with "MODELS" an internally-added upper name of pair).
   Step      Time      LN1A       LN1B       LN1C       COMPA      COMPB      COMPC      SB1A       SB1B       SB1C       SE2A
 

                       SE2B       SE2C       VFF2A      VFF2B      VFF2C      IFUENA     IFUENB     IFUENC     VFF2A      VFF2B
                                                                                                               VFF2B      VFF2C

                       VFF2C      LN1A       LN1B       LN1C       SB1A       SB1B       SB1C       VFUENA     VFUENB     VFUENC
                       VFF2A      LN1B       LN1C       LN1A       SB1B       SB1C       SB1A       IFUENA     IFUENB     IFUENC

                       COMPA      COMPB      COMPC      MODELS     MODELS     MODELS     MODELS     MODELS     MODELS     MODELS
                       RSNSHA     RSNSHB     RSNSHC     ANVOL      LONG       R0F        R1F        X0F        X1F        RDIVX

                       MODELS     MODELS     MODELS     MODELS     MODELS     MODELS     MODELS     MODELS     MODELS     MODELS
                       RINSER     CLOSE1     RPPOS      RPCERO     LPPOS      LPCERO     CPPOS      CPCERO     XP         CR

                       MODELS     MODELS     MODELS     MODELS     MODELS
                       SIMET      ENC1       ENC2       ENC1AS     ENC2AS
 ***      Phasor I(0) =  4.5520911E-08                     Switch  "LN1A  "  to  "COMPA "  closed in the steady-state.
 ***      Phasor I(0) = -2.0541793E-07                     Switch  "LN1B  "  to  "COMPB "  closed in the steady-state.
 ***      Phasor I(0) =  1.6725824E-07                     Switch  "LN1C  "  to  "COMPC "  closed in the steady-state.
 ***      Phasor I(0) =  3.7706698E-08                     Switch  "VFF2A "  to  "RSNNHA"  closed in the steady-state.
 ***      Phasor I(0) = -1.9414188E-07                     Switch  "VFF2B "  to  "RSNNHB"  closed in the steady-state.
 ***      Phasor I(0) =  1.5643518E-07                     Switch  "VFF2C "  to  "RSNNHC"  closed in the steady-state.
 ***      Phasor I(0) =  4.2898852E-01                     Switch  "VFUENA"  to  "IFUENA"  closed in the steady-state.
 ***      Phasor I(0) = -1.0938578E-01                     Switch  "VFUENB"  to  "IFUENB"  closed in the steady-state.
 ***      Phasor I(0) = -3.1960274E-01                     Switch  "VFUENC"  to  "IFUENC"  closed in the steady-state.
 ***      Phasor I(0) =  4.5520911E-08                     Switch  "COMPA "  to  "RSNSHA"  closed in the steady-state.
 ***      Phasor I(0) = -2.0541793E-07                     Switch  "COMPB "  to  "RSNSHB"  closed in the steady-state.
 ***      Phasor I(0) =  1.6725824E-07                     Switch  "COMPC "  to  "RSNSHC"  closed in the steady-state.
      0       0.0  35.3075565 -172.48576 137.178199 35.3075565 -172.48576 137.178199 428661.465 -214334.61 -214326.85        0.0
                          0.0        0.0 37.7066983 -194.14188 156.435185 428660.705 -214330.35 -214330.35 231.848581 -350.57707
                   118.728486 207.793312 -309.66396 101.870643 642996.074 -7.7545606 -642988.32 .428988521 -.10938578 -.31960274
                   .455209E-7 -.20542E-6 .167258E-6        0.0   444.1976   1.416541    1.09448   13.10665   10.12675    .108078
                         420.    .058126    .020307    .338604    .239443   1.073707    .015792    .008759   698.1155   13.96231
                          0.0        0.0        0.0        0.0        0.0
    500     .5E-3  62.8410542 -179.56293 116.721877 62.8410542 -179.56293 116.721877 423384.655 -153622.72 -269761.93        0.0
                          0.0        0.0 68.9057037 -202.47493 133.569228  423383.18 -153618.26 -269764.92 271.380635 -336.04416
                   64.6635244 242.403985 -296.28481 53.8808224 577007.376 116139.211 -693146.59 .404742781 -.04043629 -.36430649
                   .628167E-7 -.19662E-6 .126696E-6        0.0   444.1976   1.416541    1.09448   13.10665   10.12675    .108078
                         420.    .058126    .020307    .338604    .239443   1.073707    .015792    .008759   698.1155   13.96231
                          0.0        0.0        0.0        0.0        0.0
   1000     .1E-2  88.8270562  -182.2186 93.3915459 88.8270562  -182.2186 93.3915459 407682.661 -89128.109 -318554.55        0.0
                          0.0        0.0 98.4080219 -205.82238 107.414354 407680.557 -89123.572 -318556.98 304.230398 -313.23673
                   9.00633199 271.045658 -275.61015 4.56448967  496810.77 229426.444 -726237.21 .370508562 .029520045 -.40002861
                   .888373E-7 -.17872E-6  .10409E-6        0.0   444.1976   1.416541    1.09448   13.10665   10.12675    .108078
                         420.    .058126    .020307    .338604    .239443   1.073707    .015792    .008759   698.1155   13.96231
                          0.0        0.0        0.0        0.0        0.0
   1500     .0015   112.62575  -180.3874 67.7616501  112.62575  -180.3874 67.7616501 381942.193 -22438.878 -359503.32        0.0
                          0.0        0.0 125.487208 -204.10179  78.614582 381939.485 -22434.368 -359505.12 329.588998 -282.71637
                   -46.872626  293.01315 -248.14905   -44.8641 404381.072 337064.437 -741445.51 .327150478 .098749863 -.42590034
                   .123288E-6 -.17606E-6 .669897E-7        0.0   444.1976   1.416541    1.09448   13.10665   10.12675    .108078
                         420.    .058126    .020307    .338604    .239443   1.073707    .015792    .008759   698.1155   13.96231
                          0.0        0.0        0.0        0.0        0.0
   2000      .002  133.651346 -174.11452 40.4631762 133.651346 -174.11452 40.4631762 346797.041 44802.8713 -391599.91        0.0
                          0.0        0.0 149.477813 -197.35621 47.8783927 346793.795 44807.2448 -391601.04 346.834019  -245.2346
                   -101.59942 307.765869  -214.5777  -93.18817  301994.17 436402.784 -738396.95 .275737594 .165547765 -.44128536
                   .134751E-6 -.17819E-6 .434266E-7        0.0   444.1976   1.416541    1.09448   13.10665   10.12675    .108078
                         420.    .058126    .020307    .338604    .239443   1.073707    .015792    .008759   698.1155   13.96231
                          0.0        0.0        0.0        0.0        0.0
   2500     .0025  151.385993 -163.55436 12.1683698 151.385993 -163.55436 12.1683698 303112.595 110941.426 -414054.02        0.0
                          0.0        0.0 169.785139 -185.74974  15.964599 303108.891 110945.554 -414054.45 355.534877 -201.71434
                   -153.82054 314.940357 -175.72273 -139.21762 192171.168 524995.447 -717166.62 .217535258 .228269271 -.44580453
                   .167705E-6 -.16634E-6 .128484E-7        0.0   444.1976   1.416541    1.09448   13.10665   10.12675    .108078
                         420.    .058126    .020307    .338604    .239443   1.073707    .015792    .008759   698.1155   13.96231
                          0.0        0.0        0.0        0.0        0.0
   3000      .003  165.393015 -148.96695 -16.426063 165.393015 -148.96695 -16.426063 251964.509 174348.235 -426312.74        0.0
                          0.0        0.0 185.913099 -169.57015 -16.342951 251960.441 174352.016 -426312.46 355.483247  -153.2272
                   -202.25605 314.359968 -132.54089 -181.81908 77616.2744 600660.979 -678277.25 .153976394 .285370073 -.43934647
                   .171186E-6 -.16908E-6 -.16325E-7        0.0   444.1976   1.416541    1.09448   13.10665   10.12675    .108078
                         420.    .058126    .020307    .338604    .239443   1.073707    .015792    .008759   698.1155   13.96231
                          0.0        0.0        0.0        0.0        0.0
   3500     .0035  175.327705 -130.71158 -44.616126 175.327705 -130.71158 -44.616126 194612.259 233461.993 -428074.25        0.0
                          0.0        0.0 197.463345 -149.21522 -48.248125 194607.888 233465.353 -428073.24 346.678566 -100.96709
                   -245.71147 306.039283 -86.095452 -219.94383 -38849.734 661536.245 -622686.51 .086624173   .3354451 -.42206927
                   .178271E-6 -.12516E-6 -.46013E-7        0.0   444.1976   1.416541    1.09448   13.10665   10.12675    .108078
                         420.    .058126    .020307    .338604    .239443   1.073707    .015792    .008759   698.1155   13.96231
                          0.0        0.0        0.0        0.0        0.0
   4000      .004  180.944973 -109.23751 -71.707459 180.944973 -109.23751 -71.707459 132467.939 286827.177 -419295.12        0.0
                          0.0        0.0 204.151335 -125.18609 -78.965243 132463.443 286829.997 -419293.44 329.337427 -46.220849
                   -283.11658 290.182487 -37.530055 -252.65243 -154359.24 706122.292 -551763.05 .017145399 .377257128 -.39440253
                   .199302E-6  -.1194E-6 -.79905E-7        0.0   444.1976   1.416541    1.09448   13.10665   10.12675    .108078
                         420.    .058126    .020307    .338604    .239443   1.073707    .015792    .008759   698.1155   13.96231
                          0.0        0.0        0.0        0.0        0.0
   4500     .0045  182.106755 -85.073651 -97.033105 182.106755 -85.073651 -97.033105 67061.8446 333129.711 -400191.56        0.0
                          0.0        0.0  205.81244 -98.074466 -107.73797 67057.3081 333131.936 -400189.24 303.886906 9.66350849
                   -313.55041 267.180406  11.959454 -279.13986 -266067.87 733321.266  -467253.4 -.05276253 .409783326  -.3570208
                   .179191E-6 -.89341E-7 -.10407E-6        0.0   444.1976   1.416541    1.09448   13.10665   10.12675    .108078
                         420.    .058126    .020307    .338604    .239443   1.073707    .015792    .008759   698.1155   13.96231
                          0.0        0.0        0.0        0.0        0.0
   5000      .005  178.784554 -58.815036 -119.96952 178.784554 -58.815036 -119.96952 4.47772217 371229.479 -371233.96        0.0
                          0.0        0.0 202.405962 -68.548022 -133.85794 -.45661E-7  371231.06 -371231.06 270.953984 65.3099183
                    -336.2639  237.59959 61.1544829 -298.75407   -371225. 742463.436 -371238.43 -.12136891 .432218124 -.31084922
                   .198236E-6 -.59788E-7 -.13135E-6        0.0   444.1976   1.416541    1.09448   13.10665   10.12675    .108078
                         420.    .058126    .020307    .338604    .239443   1.073707    .015792    .008759   698.1155   13.96231
                          0.0        0.0        0.0        0.0        0.0
   5500     .0055  171.060118 -31.108217  -139.9519 171.060118 -31.108217  -139.9519 -67053.004 400188.348 -333135.34        0.0
                          0.0        0.0 194.015413 -37.333617  -156.6818 -67057.308 400189.244 -333131.94 231.349029 119.348179
                   -350.69721 202.168335 108.843685 -311.01202 -467241.35 733323.692 -266082.34 -.18698653  .44401015 -.25702362
                   .176611E-6 -.31911E-7 -.13759E-6        0.0   444.1976   1.416541    1.09448   13.10665   10.12675    .108078
                         420.    .058126    .020307    .338604    .239443   1.073707    .015792    .008759   698.1155   13.96231
                          0.0        0.0        0.0        0.0        0.0
   6000      .006  159.123592 -2.6353991 -156.48819 159.123592 -2.6353991 -156.48819 -132459.42 419293.252 -286833.83        0.0
                          0.0        0.0 180.847136 -5.1997206 -175.64741 -132463.44  419293.44   -286830. 186.046856 170.447694
                   -356.49455 161.758991 153.852794 -315.61179 -551752.67 706127.085 -154374.41 -.24800001 .444869216  -.1968692
                   .168881E-6 -.26841E-8 -.15376E-6        0.0   444.1976   1.416541    1.09448   13.10665   10.12675    .108078
                         420.    .058126    .020307    .338604    .239443   1.073707    .015792    .008759   698.1155   13.96231
                          0.0        0.0        0.0        0.0        0.0
   6500     .0065   143.26927 25.9021329  -169.1714  143.26927 25.9021329  -169.1714 -194604.26 428073.771 -233469.51        0.0
                          0.0        0.0 163.226375 27.0619231  -190.2883 -194607.89  428073.24 -233465.35 136.164452 217.350222
                   -353.51467 117.367137 195.073536 -312.44067 -622678.03 661543.286 -38865.258 -.30290449 .434772912 -.13186842
                   .147799E-6 .267438E-7  -.1639E-6        0.0   444.1976   1.416541    1.09448   13.10665   10.12675    .108078
                         420.    .058126    .020307    .338604    .239443   1.073707    .015792    .008759   698.1155   13.96231
                          0.0        0.0        0.0        0.0        0.0
   7000      .007  123.886167  53.802377 -177.68854 123.886167  53.802377 -177.68854 -251957.26 426313.679 -174356.42        0.0
                          0.0        0.0 141.586261 58.6573017 -200.24356 -251960.44 426312.457 -174352.02 82.9289588 258.900864
                   -341.82982 70.0837896 231.490921 -301.57471 -678270.94 600670.095 77600.8453 -.35035465 .413973162 -.06361851
                   .133464E-6 .537778E-7 -.19436E-6        0.0   444.1976   1.416541    1.09448   13.10665   10.12675    .108078
                         420.    .058126    .020307    .338604    .239443   1.073707    .015792    .008759   698.1155   13.96231
                          0.0        0.0        0.0        0.0        0.0
   7500     .0075  101.453527 80.3773522 -181.83088 101.453527 80.3773522 -181.83088 -303106.27  414056.34 -110950.07        0.0
                          0.0        0.0 116.459824 88.8083418 -205.26817 -303108.89 414054.446 -110945.55 27.6514826 294.076508
                   -321.72799 21.0761752 262.208232 -283.28441 -717162.61 525006.414 192156.194 -.38917617 .382979141 .006197031
                   .108879E-6 .891342E-7 -.19801E-6        0.0   444.1976   1.416541    1.09448   13.10665   10.12675    .108078
                         420.    .058126    .020307    .338604    .239443   1.073707    .015792    .008759   698.1155   13.96231
                          0.0        0.0        0.0        0.0        0.0
   8000      .008  76.5224932 104.973306  -181.4958 76.5224932 104.973306  -181.4958 -346791.78 391603.556 -44811.776        0.0
                          0.0        0.0 88.4653405 116.772835 -205.23818  -346793.8  391601.04 -44807.245 -28.307494  322.01101
                   -293.70352 -28.450813 286.469106 -258.01829 -738395.34 436415.332 301980.004 -.41841571 .342555318 .075860394
                   .810953E-7 .110829E-6 -.19194E-6        0.0   444.1976   1.416541    1.09448   13.10665   10.12675    .108078
                         420.    .058126    .020307    .338604    .239443   1.073707    .015792    .008759   698.1155   13.96231
                          0.0        0.0        0.0        0.0        0.0
   8500     .0085  49.7072169 126.984471 -176.69169 49.7072169 126.984471 -176.69169 -381938.13 359508.192 22429.9362        0.0
                          0.0        0.0 58.2930646 141.861736  -200.1548 -381939.48 359505.117 22434.3679 -83.568672 342.016537
                   -258.44787 -77.277254 303.676159  -226.3989 -741446.32 337078.256 404368.065 -.43735112 .293695973 .143655149
                    .53651E-7 .129679E-6 -.18334E-6        0.0   444.1976   1.416541    1.09448   13.10665   10.12675    .108078
                         420.    .058126    .020307    .338604    .239443   1.073707    .015792    .008759   698.1155   13.96231
                          0.0        0.0        0.0        0.0        0.0
   9000      .009  21.6679886 145.868854 -167.53684 21.6679886 145.868854 -167.53684  -407679.9 318560.545 89119.3504        0.0
                          0.0        0.0 26.6855786  163.45745 -190.14303 -407680.56 318556.985  89123.572 -136.77187 353.600479
                   -216.82861 -124.20087 313.405697 -189.20483 -726240.44 229441.195 496799.246 -.44551789 .237605054 .207912835
                   .236111E-7 .142213E-6 -.16582E-6        0.0   444.1976   1.416541    1.09448   13.10665   10.12675    .108078
                         420.    .058126    .020307    .338604    .239443   1.073707    .015792    .008759   698.1155   13.96231
                          0.0        0.0        0.0        0.0        0.0
   9500     .0095  -6.9056664 161.161907 -154.25624 -6.9056664 161.161907 -154.25624 -423383.23 269768.879 153614.349        0.0
                          0.0        0.0  -5.579328 181.028466 -175.44914 -423383.18 269764.922 153618.258 -186.60779 356.477605
                   -169.86981 -168.06757 315.418147 -147.35057 -693152.11  116154.53 576997.577 -.44271672 .175664606 .267052111
                   -.69922E-8 .169395E-6 -.15709E-6        0.0   444.1976   1.416541    1.09448   13.10665   10.12675    .108078
                         420.    .058126    .020307    .338604    .239443   1.073707    .015792    .008759   698.1155   13.96231
                          0.0        0.0        0.0        0.0        0.0
  10000       .01  -35.307484  172.48572 -137.17824 -35.307484  172.48572 -137.17824 -428661.47 214334.614 214326.859        0.0
                          0.0        0.0 -37.706671  194.14187  -156.4352 -428660.71 214330.353 214330.352 -231.84854 350.577068
                   -118.72853  -207.7932 309.663956 -101.87075 -642996.09 7.75494647 642988.332 -.42901067 .109396846 .319613819
                   -.37471E-7 .183026E-6 -.15266E-6        0.0   444.1976   1.416541    1.09448   13.10665   10.12675    .108078
                         420.    .058126    .020307    .338604    .239443   1.073707    .015792    .008759   698.1155   13.96231
                          0.0        0.0        0.0        0.0        0.0
  10500     .0105  -62.841032 179.562921 -116.72189 -62.841032 179.562921 -116.72189 -423384.63 153622.709  269761.92        0.0
                          0.0        0.0 -68.905706 202.474933 -133.56923 -423383.18 153618.258 269764.922 -271.38064  336.04416
                   -64.663522 -242.40395 296.284809 -53.880857 -577007.34 -116139.21  693146.55 -.40474244 .040436127 .364306316
                   -.63805E-7 .196587E-6 -.11858E-6        0.0   444.1976   1.416541    1.09448   13.10665   10.12675    .108078
                         420.    .058126    .020307    .338604    .239443   1.073707    .015792    .008759   698.1155   13.96231
                          0.0        0.0        0.0        0.0        0.0
  11000      .011   -88.82692 182.218534 -93.391614  -88.82692 182.218534 -93.391614 -407682.66 89128.1092 318554.553        0.0
                          0.0        0.0 -98.407994 205.822364 -107.41437 -407680.56  89123.572 318556.985 -304.23036 313.236733
                   -9.0063752 -271.04545 275.610149 -4.5646945 -496810.77 -229426.44 726237.215 -.37050791 -.02952037 .400028284
                   -.87017E-7  .19924E-6 -.98014E-7        0.0   444.1976   1.416541    1.09448   13.10665   10.12675    .108078
                         420.    .058126    .020307    .338604    .239443   1.073707    .015792    .008759   698.1155   13.96231
                          0.0        0.0        0.0        0.0        0.0
  11500     .0115  -112.62574 180.387397 -67.761654 -112.62574 180.387397 -67.761654 -381942.19 22438.8786 359503.315        0.0
                          0.0        0.0 -125.48711 204.101741 -78.614632 -381939.48 22434.3679 359505.117 -329.58885 282.716372
                   46.8724771 -293.01314 248.149051 44.8640902 -404381.07 -337064.44 741445.509 -.32715073 -.09874974 .425900465
                   -.12482E-6 .176881E-6 -.66277E-7        0.0   444.1976   1.416541    1.09448   13.10665   10.12675    .108078
                         420.    .058126    .020307    .338604    .239443   1.073707    .015792    .008759   698.1155   13.96231
                          0.0        0.0        0.0        0.0        0.0
  12000      .012  -133.65134 174.114522 -40.463178 -133.65134 174.114522 -40.463178 -346797.04 -44802.872 391599.913        0.0
                          0.0        0.0 -149.47644 197.355521 -47.879079  -346793.8 -44807.245  391601.04 -346.83196   245.2346
                   101.597364 -307.76587   214.5777 93.1881668 -301994.17 -436402.78 738396.954 -.27573763 -.16554774 .441285379
                   -.13767E-6 .193788E-6  -.4191E-7        0.0   444.1976   1.416541    1.09448   13.10665   10.12675    .108078
                         420.    .058126    .020307    .338604    .239443   1.073707    .015792    .008759   698.1155   13.96231
                          0.0        0.0        0.0        0.0        0.0
  12500     .0125  -151.38516 163.553949 -12.168785 -151.38516 163.553949 -12.168785 -303112.59 -110941.43 414054.019        0.0
                          0.0        0.0 -169.78504 185.749688 -15.964649 -303108.89 -110945.55 414054.446 -355.53473 201.714337
                   153.820389 -314.93911 175.722734 139.216379 -192171.16 -524995.45 717166.609  -.2175333 -.22827025 .445803548
                   -.14738E-6 .169794E-6 -.13531E-7        0.0   444.1976   1.416541    1.09448   13.10665   10.12675    .108078
                         420.    .058126    .020307    .338604    .239443   1.073707    .015792    .008759   698.1155   13.96231
                          0.0        0.0        0.0        0.0        0.0
  13000      .013    -165.393 148.966948 16.4260572   -165.393 148.966948 16.4260572  -251964.5 -174348.24  426312.74        0.0
                          0.0        0.0 -185.91314 169.570169  16.342972 -251960.44 -174352.02 426312.457 -355.48331 153.227197
                   202.256113 -314.35995 132.540891 181.819062 -77616.262 -600660.98 678277.241  -.1539766 -.28536997 .439346567
                   -.18155E-6 .158745E-6 .157115E-7        0.0   444.1976   1.416541    1.09448   13.10665   10.12675    .108078
                         420.    .058126    .020307    .338604    .239443   1.073707    .015792    .008759   698.1155   13.96231
                          0.0        0.0        0.0        0.0        0.0
  13500     .0135  -175.32733 130.711393 44.6159417 -175.32733 130.711393 44.6159417 -194612.22 -233462.01 428074.233        0.0
                          0.0        0.0 -197.46332 149.215207 48.2481111 -194607.89 -233465.35  428073.24 -346.67852 100.967096
                   245.711429 -306.03873 86.0954511 219.943276 38849.7897 -661536.24 622686.455 -.08662624 -.33544406 .422070297
                   -.18625E-6 .123385E-6 .486543E-7        0.0   444.1976   1.416541    1.09448   13.10665   10.12675    .108078
                         420.    .058126    .020307    .338604    .239443   1.073707    .015792    .008759   698.1155   13.96231
                          0.0        0.0        0.0        0.0        0.0
  14000      .014  -180.94485 109.237451 71.7073948 -180.94485 109.237451 71.7073948 -132467.93 -286827.18 419295.114        0.0
                          0.0        0.0 -204.15114 125.185992 78.9651436 -132463.44   -286830.  419293.44 -329.33713 46.2208479
                   283.116279  -290.1823 37.5300561 252.652241 154359.244 -706122.29 551763.048 -.01714269 -.37725848 .394401173
                   -.17994E-6 .108829E-6 .711007E-7        0.0   444.1976   1.416541    1.09448   13.10665   10.12675    .108078
                         420.    .058126    .020307    .338604    .239443   1.073707    .015792    .008759   698.1155   13.96231
                          0.0        0.0        0.0        0.0        0.0
  14500     .0145  -182.10673 85.0736364   97.03309 -182.10673 85.0736364   97.03309 -67061.849 -333129.71 400191.557        0.0
                          0.0        0.0 -205.81232 98.0744049 107.737913 -67057.308 -333131.94 400189.244 -303.88672 -9.6635078
                    313.55023 -267.18036 -11.959454 279.139816  266067.86 -733321.27 467253.406 .052762783 -.40978346 .357020672
                   -.20134E-6 .868993E-7 .100255E-6        0.0   444.1976   1.416541    1.09448   13.10665   10.12675    .108078
                         420.    .058126    .020307    .338604    .239443   1.073707    .015792    .008759   698.1155   13.96231
                          0.0        0.0        0.0        0.0        0.0
  % % % % % %   Suspended simulation;  plot data space exhausted;  SPY SPACE is required.   LIMBUF =  840000.
  % % % % % %   Suspended simulation;  plot data space exhausted;  SPY SPACE is required.   LIMBUF =  840000.
  +++  Time-sharing disabled.   Send  user-keyed interrupt to silence alarm.
   Current values.  INDBUF  INDBEG  LIMBUF  MFLUSH  NUMDCD  KCARD1  KCARD2
                    839994      50  840000    1000     230       1     231
Plot timespan now in memory (in sec) = 0.00000000E+00   1.49990000E-02
   ++++  Begin plot-data copy from memory to disk.   MFLUSH, INDBUF, N4, Tbeg,  Tend = 1001  839994       1  -1.00000E+00
1.00000E+19
  15000      .015  -178.78457 58.8150421 119.969524 -178.78457 58.8150421 119.969524 -4.4771221 -371229.48 371233.956        0.0
                          0.0        0.0 -202.40571 68.5478958 133.857814 -.61533E-6 -371231.06  371231.06 -270.95361 -65.309918
                   336.263523 -237.59961 -61.154482  298.75409 371225.002 -742463.44 371238.434  .12136882 -.43221808 .310849261
                   -.19574E-6 .584466E-7 .130203E-6        0.0   444.1976   1.416541    1.09448   13.10665   10.12675    .108078
                         420.    .058126    .020307    .338604    .239443   1.073707    .015792    .008759   698.1155   13.96231
                          0.0        0.0        0.0        0.0        0.0
  15500     .0155  -171.05999 31.1081521 139.951836 -171.05999 31.1081521 139.951836 67052.9962 -400188.34 333135.348        0.0
                          0.0        0.0 -194.01515 37.3334856 156.681665 67057.3081 -400189.24 333131.936 -231.34864 -119.34818
                   350.696816 -202.16814 -108.84368 311.011824  467241.34 -733323.69 266082.352 .186985092 -.44400943 .257024341
                   -.18846E-6 .322336E-7 .156229E-6        0.0   444.1976   1.416541    1.09448   13.10665   10.12675    .108078
                         420.    .058126    .020307    .338604    .239443   1.073707    .015792    .008759   698.1155   13.96231
                          0.0        0.0        0.0        0.0        0.0
  16000      .016  -159.12348 2.63534544 156.488139 -159.12348 2.63534544 156.488139 132459.414 -419293.25 286833.836        0.0
                          0.0        0.0  -180.8473 5.19980178 175.647496 132463.443 -419293.44 286829.997  -186.0471 -170.44769
                   356.494794 -161.75883 -153.85279 315.611624 551752.663 -706127.09 154374.422 .248000756 -.44486959 .196868834
                    -.1635E-6 .263891E-8 .164408E-6        0.0   444.1976   1.416541    1.09448   13.10665   10.12675    .108078
                         420.    .058126    .020307    .338604    .239443   1.073707    .015792    .008759   698.1155   13.96231
                          0.0        0.0        0.0        0.0        0.0
  16500     .0165  -143.26904 -25.902247  169.17129 -143.26904 -25.902247  169.17129 194604.245 -428073.77 233469.521        0.0
                          0.0        0.0 -163.22639 -27.061913 190.288308 194607.888 -428073.24 233465.353 -136.16448 -217.35022
                   353.514702  -117.3668 -195.07354 312.440333  622678.01 -661543.29 38865.2762 .302907325 -.43477433 .131867008
                   -.14537E-6 -.26205E-7 .175118E-6        0.0   444.1976   1.416541    1.09448   13.10665   10.12675    .108078
                         420.    .058126    .020307    .338604    .239443   1.073707    .015792    .008759   698.1155   13.96231
                          0.0        0.0        0.0        0.0        0.0
  17000      .017  -123.88629 -53.802315 177.688606 -123.88629 -53.802315 177.688606 251957.265 -426313.68 174356.415        0.0
                          0.0        0.0 -141.58462 -58.658123 200.242743 251960.441 -426312.46 174352.016 -82.926497 -258.90087
                   341.827363 -70.083977 -231.49092 301.574898 678270.945  -600670.1 -77600.849 .350355204 -.41397344 .063618235
                   -.12682E-6 -.57574E-7 .191503E-6        0.0   444.1976   1.416541    1.09448   13.10665   10.12675    .108078
                         420.    .058126    .020307    .338604    .239443   1.073707    .015792    .008759   698.1155   13.96231
                          0.0        0.0        0.0        0.0        0.0
  17500     .0175  -101.45361 -80.377311  181.83092 -101.45361 -80.377311  181.83092 303106.262 -414056.34 110950.076        0.0
                          0.0        0.0 -116.46001 -88.808249 205.268259 303108.891 -414054.45 110945.554  -27.65176 -294.07651
                   321.728268 -21.076298 -262.20823  283.28453   717162.6 -525006.41 -192156.19 .389176662 -.38297939 -.00619728
                   -.10991E-6 -.80747E-7 .190659E-6        0.0   444.1976   1.416541    1.09448   13.10665   10.12675    .108078
                         420.    .058126    .020307    .338604    .239443   1.073707    .015792    .008759   698.1155   13.96231
                          0.0        0.0        0.0        0.0        0.0
  18000      .018  -76.522528 -104.97329 181.495816 -76.522528 -104.97329 181.495816 346791.777 -391603.55 44811.7772        0.0
                          0.0        0.0 -88.465849 -116.77258  205.23843 346793.795 -391601.04 44807.2448 28.3067325 -322.01101
                   293.704279 28.4507601  -286.4691 258.018345 738395.332 -436415.33   -301980. .418415339 -.34255513 -.07586021
                   -.84586E-7 -.10867E-6 .179047E-6        0.0   444.1976   1.416541    1.09448   13.10665   10.12675    .108078
                         420.    .058126    .020307    .338604    .239443   1.073707    .015792    .008759   698.1155   13.96231
                          0.0        0.0        0.0        0.0        0.0
  18500     .0185  -49.708427 -126.98387 176.692299 -49.708427 -126.98387 176.692299  381938.13 -359508.19 -22429.937        0.0
                          0.0        0.0 -58.293583 -141.86148 200.155061 381939.485 -359505.12 -22434.368 83.5678945 -342.01654
                   258.448644 77.2754453 -303.67617 226.400727 741446.323 -337078.26 -404368.07 .437351444 -.29369613 -.14365531
                   -.54822E-7 -.12964E-6 .184446E-6        0.0   444.1976   1.416541    1.09448   13.10665   10.12675    .108078
                         420.    .058126    .020307    .338604    .239443   1.073707    .015792    .008759   698.1155   13.96231
                          0.0        0.0        0.0        0.0        0.0
  19000      .019   -21.66826 -145.86872 167.536978  -21.66826 -145.86872 167.536978 407679.898 -318560.55 -89119.352        0.0
                          0.0        0.0 -26.685665 -163.45741 190.143072 407680.557 -318556.98 -89123.572 136.771742 -353.60048
                   216.828736 124.200459  -313.4057 189.205238 726240.444 -229441.19 -496799.25 .445516936 -.23760458 -.20791236
                   -.21712E-7 -.13993E-6 .168759E-6        0.0   444.1976   1.416541    1.09448   13.10665   10.12675    .108078
                         420.    .058126    .020307    .338604    .239443   1.073707    .015792    .008759   698.1155   13.96231
                          0.0        0.0        0.0        0.0        0.0
  19500     .0195  6.90482468 -161.16149 154.256661 6.90482468 -161.16149 154.256661 423383.227 -269768.88 -153614.35        0.0
                          0.0        0.0 5.57922833 -181.02842 175.449188  423383.18 -269764.92 -153618.26 186.607644  -356.4776
                   169.869959  168.06631 -315.41815 147.351836 693152.106 -116154.53 -576997.58  .44271428 -.17566339 -.26705089
                   .683816E-8  -.1688E-6 .157524E-6        0.0   444.1976   1.416541    1.09448   13.10665   10.12675    .108078
                         420.    .058126    .020307    .338604    .239443   1.073707    .015792    .008759   698.1155   13.96231
                          0.0        0.0        0.0        0.0        0.0
  20000       .02  35.3074938 -172.48572 137.178231 35.3074938 -172.48572 137.178231 428661.465 -214334.61 -214326.85        0.0
                          0.0        0.0 37.7066889 -194.14188 156.435189 428660.705 -214330.35 -214330.35 231.848567 -350.57707
                     118.7285 207.793218 -309.66395 101.870737 642996.074 -7.7549394 -642988.32 .429010107 -.10939657 -.31961354
                    .39231E-7 -.18605E-6 .146843E-6        0.0   444.1976   1.416541    1.09448   13.10665   10.12675    .108078
                         420.    .058126    .020307    .338604    .239443   1.073707    .015792    .008759   698.1155   13.96231
                          0.0        0.0        0.0        0.0        0.0
  20500     .0205  62.8409445 -179.56288 116.721932 62.8409445 -179.56288 116.721932 423384.631 -153622.71 -269761.92        0.0
                          0.0        0.0 68.9057739 -202.47497 133.569193  423383.18 -153618.26 -269764.92  271.38074 -336.04416
                   64.6634186 242.403821 -296.28481 53.8809875 577007.341 116139.211 -693146.55 .404741981  -.0404359 -.36430609
                   .634092E-7  -.1753E-6 .126107E-6        0.0   444.1976   1.416541    1.09448   13.10665   10.12675    .108078
                         420.    .058126    .020307    .338604    .239443   1.073707    .015792    .008759   698.1155   13.96231
                          0.0        0.0        0.0        0.0        0.0
  21000      .021  88.8269502 -182.21855 93.3915987 88.8269502 -182.21855 93.3915987 407682.663 -89128.109 -318554.55        0.0
                          0.0        0.0 98.4080549 -205.82239 107.414338 407680.557 -89123.572 -318556.98 304.230447 -313.23673
                   9.00628276 271.045499 -275.61015 4.56464849 496810.772 229426.444 -726237.22 .370507761 .029520446 -.40002821
                   .928246E-7 -.18802E-6 .951841E-7        0.0   444.1976   1.416541    1.09448   13.10665   10.12675    .108078
[...]
                         420.    .058126    .020307    .338604    .239443   1.073707    .015792    .008759   698.1155   13.96231
                          0.0        0.0        0.0        0.0        0.0
 113000      .113  -233501.35 -202420.14 435921.485 -233501.35 -202420.14 435921.485 -233501.34 -202420.14 435921.485        0.0
                          0.0        0.0 -186847.03 -311849.07 498696.094 -251960.44 -174352.02 426312.457 125002.041 -810545.16
                    685543.12 -31081.205 -638341.63  669422.83 -31081.202 -638341.63 669422.828 840.609651 -627.47081 -213.13884
                   -.25319E-3 -.19311E-3 .475347E-3        0.0   444.1976   1.416541    1.09448   13.10665   10.12675    .108078
                         420.    .058126    .020307    .338604    .239443   1.073707    .015792    .008759   698.1155   13.96231
                          0.0        0.0        0.0        0.0        0.0
 113500     .1135  -212905.91 -220639.88 433545.795 -212905.91 -220639.88 433545.795 -212905.91 -220639.88 433545.795        0.0
                          0.0        0.0  -16665.67 -458031.45  474697.12 -194607.89 -233465.35  428073.24  441365.78 -932728.57
                    491362.79  7733.9703 -654185.68 646451.708 7733.97227 -654185.68 646451.706 648.130533  -333.6763 -314.45423
                   -.21864E-3 -.22088E-3 .439465E-3        0.0   444.1976   1.416541    1.09448   13.10665   10.12675    .108078
                         420.    .058126    .020307    .338604    .239443   1.073707    .015792    .008759   698.1155   13.96231
                          0.0        0.0        0.0        0.0        0.0
 114000      .114  -120831.64 -301217.88 422049.516 -120831.64 -301217.88 422049.516 -120831.64 -301217.88 422049.516        0.0
                          0.0        0.0  -5323.361 -422599.49 427922.846 -132463.44   -286830.  419293.44 417276.124 -850522.33
                   433246.207 180386.236 -723267.39 542881.157 180386.237 -723267.39 542881.155 358.088001 31.9413308 -390.02933
                   -.11742E-3 -.29319E-3  .42516E-3        0.0   444.1976   1.416541    1.09448   13.10665   10.12675    .108078
                         420.    .058126    .020307    .338604    .239443   1.073707    .015792    .008759   698.1155   13.96231
                          0.0        0.0        0.0        0.0        0.0
 114500     .1145  -71714.205 -332997.12 404711.326 -71714.205 -332997.12 404711.326 -71714.203 -332997.12 404711.325        0.0
                          0.0        0.0 -61676.036 -331046.25 392722.285 -67057.308 -333131.94 400189.244 269370.213 -723768.53
                   454398.321 261282.917 -737708.45  476425.53 261282.918 -737708.45 476425.528  557.51967 -134.89564 -422.62403
                   -.79088E-4 -.34486E-3 .423938E-3        0.0   444.1976   1.416541    1.09448   13.10665   10.12675    .108078
                         420.    .058126    .020307    .338604    .239443   1.073707    .015792    .008759   698.1155   13.96231
                          0.0        0.0        0.0        0.0        0.0
 115000      .115  29604.4424 -402027.44 372423.001 29604.4424 -402027.44 372423.001 29604.4428 -402027.44    372423.        0.0
                          0.0        0.0 -79502.664 -288252.81  367755.47 .127058E-4 -371231.06  371231.06 208750.142 -656008.28
                   447258.134 431631.886 -774450.44 342818.559 431631.886 -774450.44 342818.558 201.511157 270.555681 -472.06684
                   .299877E-4 -.41401E-3 .413179E-3        0.0   444.1976   1.416541    1.09448   13.10665   10.12675    .108078
                         420.    .058126    .020307    .338604    .239443   1.073707    .015792    .008759   698.1155   13.96231
                          0.0        0.0        0.0        0.0        0.0
 115500     .1155  21691.2233 -352694.64 331003.412 21691.2233 -352694.64 331003.412 21691.2236 -352694.63 331003.411        0.0
                          0.0        0.0 -50520.728 -288808.11 339328.839 67057.3081 -400189.24 333131.936 238287.383 -628136.95
                   389849.566 374385.859 -683698.05 309312.189 374385.858 -683698.05 309312.188 145.629173 299.729861 -445.35903
                   .235876E-4 -.33842E-3   .3694E-3        0.0   444.1976   1.416541    1.09448   13.10665   10.12675    .108078
                         420.    .058126    .020307    .338604    .239443   1.073707    .015792    .008759   698.1155   13.96231
                          0.0        0.0        0.0        0.0        0.0
 116000      .116  99710.9623 -392129.34 292418.379 99710.9623 -392129.34 292418.379 99710.9638 -392129.34 292418.378        0.0
                          0.0        0.0 35437.3431 -352025.26 316587.916 132463.443 -419293.44 286829.997 387462.602 -668613.18
                   281150.573 491840.303 -684547.72 192707.416 491840.305 -684547.72 192707.414 767.843485 -311.02624 -456.81724
                   .108423E-3 -.40897E-3 .285864E-3        0.0   444.1976   1.416541    1.09448   13.10665   10.12675    .108078
                         420.    .058126    .020307    .338604    .239443   1.073707    .015792    .008759   698.1155   13.96231
                          0.0        0.0        0.0        0.0        0.0
 116500     .1165  166852.268 -410130.35 243278.083 166852.268 -410130.35 243278.083  166852.27 -410130.35 243278.082        0.0
                          0.0        0.0 81249.5183 -355921.78 274672.259 194607.888 -428073.24 233465.353 437171.296 -630594.04
                   193422.741 576982.618 -653408.43 76425.8157 576982.622 -653408.43 76425.8123 1134.90225 -571.91171 -562.99054
                   .170288E-3 -.41578E-3 .245452E-3        0.0   444.1976   1.416541    1.09448   13.10665   10.12675    .108078
                         420.    .058126    .020307    .338604    .239443   1.073707    .015792    .008759   698.1155   13.96231
                          0.0        0.0        0.0        0.0        0.0
 117000      .117  209023.652 -391292.48 182268.832 209023.652 -391292.48 182268.832 209023.655 -391292.48  182268.83        0.0
                          0.0        0.0 37717.4207 -274866.64 237149.218 251960.441 -426312.46 174352.016 312584.059 -512015.86
                   199431.797 600316.136 -573561.32 -26754.821  600316.14 -573561.31 -26754.825 1141.05087 -429.18107  -711.8698
                   .227976E-3 -.39467E-3 .195846E-3        0.0   444.1976   1.416541    1.09448   13.10665   10.12675    .108078
                         420.    .058126    .020307    .338604    .239443   1.073707    .015792    .008759   698.1155   13.96231
                          0.0        0.0        0.0        0.0        0.0
 117500     .1175  330514.639 -454659.01 124144.366 330514.639 -454659.01 124144.366 330514.642 -454659.01 124144.365        0.0
                          0.0        0.0 235082.988 -433817.64 198734.653 303108.891 -414054.45 110945.554 668900.628 -632552.29
                   -36348.334 785173.644 -578803.37 -206370.27 785173.648 -578803.37 -206370.28 1390.17777 -516.93696 -873.24081
                   .313672E-3 -.45883E-3 .130594E-3        0.0   444.1976   1.416541    1.09448   13.10665   10.12675    .108078
                         420.    .058126    .020307    .338604    .239443   1.073707    .015792    .008759   698.1155   13.96231
                          0.0        0.0        0.0        0.0        0.0
 118000      .118  335829.803  -388403.2 52573.3989 335829.803  -388403.2 52573.3989 335829.805  -388403.2 52573.3969        0.0
                          0.0        0.0 389695.868  -518508.8 128812.929 346793.795 -391601.04 44807.2447 908204.664 -647321.72
                   -260882.94 724233.005  -440976.6  -283256.4 724233.007  -440976.6 -283256.41 1111.03026  -100.4861 -1010.5442
                   .337215E-3  -.4348E-3 .539944E-4        0.0   444.1976   1.416541    1.09448   13.10665   10.12675    .108078
                         420.    .058126    .020307    .338604    .239443   1.073707    .015792    .008759   698.1155   13.96231
                          0.0        0.0        0.0        0.0        0.0
 118500     .1185  353969.971  -341244.4 -12725.575 353969.971  -341244.4 -12725.575 353969.974  -341244.4 -12725.577        0.0
                          0.0        0.0 458209.242 -495436.29 37227.0509 381939.485 -359505.12 -22434.368 953645.535 -532663.34
                   -420982.19 695214.367 -328518.82 -366695.55 695214.371 -328518.82 -366695.55 1378.55885 -249.42383  -1129.135
                   .328284E-3 -.31462E-3 -.13554E-4        0.0   444.1976   1.416541    1.09448   13.10665   10.12675    .108078
                         420.    .058126    .020307    .338604    .239443   1.073707    .015792    .008759   698.1155   13.96231
                          0.0        0.0        0.0        0.0        0.0
 119000      .119  457683.728  -377207.9 -80475.828 457683.728  -377207.9 -80475.828 457683.731  -377207.9  -80475.83        0.0
                          0.0        0.0 624097.393 -570082.72 -54014.672 407680.557 -318556.98 -89123.572  .119418E7 -516068.05
                   -678112.07 834891.629 -296732.07 -538159.56 834891.631 -296732.07 -538159.56 1124.07397 139.494231 -1263.5682
                   .459215E-3 -.36216E-3 -.82545E-4        0.0   444.1976   1.416541    1.09448   13.10665   10.12675    .108078
                         420.    .058126    .020307    .338604    .239443   1.073707    .015792    .008759   698.1155   13.96231
                          0.0        0.0        0.0        0.0        0.0
 119500     .1195  457147.792 -302702.85 -154444.94 457147.792 -302702.85 -154444.94 457147.793 -302702.85 -154444.94        0.0
                          0.0        0.0 575921.371 -419369.83 -156551.54  423383.18 -269764.92 -153618.26 995291.205  -262818.3
                   -732472.91 759850.642 -148257.91 -611592.73 759850.641  -148257.9 -611592.74 378.877568  911.77932 -1290.6569
                   .478043E-3  -.3401E-3 -.16703E-3        0.0   444.1976   1.416541    1.09448   13.10665   10.12675    .108078
                         420.    .058126    .020307    .338604    .239443   1.073707    .015792    .008759   698.1155   13.96231
                          0.0        0.0        0.0        0.0        0.0
  % % % % % %   Suspended simulation;  plot data space exhausted;  SPY SPACE is required.   LIMBUF =  840000.
  % % % % % %   Suspended simulation;  plot data space exhausted;  SPY SPACE is required.   LIMBUF =  840000.
  +++  Time-sharing disabled.   Send  user-keyed interrupt to silence alarm.
   Current values.  INDBUF  INDBEG  LIMBUF  MFLUSH  NUMDCD  KCARD1  KCARD2
                    839994      50  840000    1007     230       1     231
Plot timespan now in memory (in sec) = 1.04985997E-01   1.19985000E-01
   ++++  Begin plot-data copy from memory to disk.   MFLUSH, INDBUF, N4, Tbeg,  Tend = 1008  839994       1  -1.00000E+00
1.00000E+19
 120000       .12  437475.804 -215149.69 -222326.11 437475.804 -215149.69 -222326.11 437475.804 -215149.69 -222326.11        0.0
                          0.0        0.0 660411.585  -413696.9 -246714.69 428660.705 -214330.35 -214330.35 .1074108E7 -166982.21
                   -907126.27 652625.498 7176.41783 -659801.92 652625.495 7176.42302 -659801.92 -202.96035 1399.21308 -1196.2527
                   .436045E-3 -.22257E-3 -.24262E-3        0.0   444.1976   1.416541    1.09448   13.10665   10.12675    .108078
                         420.    .058126    .020307    .338604    .239443   1.073707    .015792    .008759   698.1155   13.96231
                          0.0        0.0        0.0        0.0        0.0

Extrema of output variables follow.   Order and column positioning are the same as for the preceding time-step loop output.
Variable maxima :   517673.08 531101.045 436320.451  517673.08 531101.045 436320.451 517673.082 531101.044  436320.45        0.0
                          0.0        0.0 879173.235 766466.131 513594.867 428660.705 428660.703 428660.703 .1417791E7 .1026653E7
                   .1322264E7 973074.765 805825.185 853873.412 973074.767 805825.183 853873.408 2254.16389 2290.68327 1704.95324
                   .569837E-3 .613869E-3 .490457E-3        0.0   444.1976   1.416541    1.09448   13.10665   10.12675    .108078
                         420.    .058126    .020307    .338604    .239443   1.073707    .015792    .008759   698.1155   13.96231
                          0.0        0.0        0.0        0.0        0.0
Times of maxima :      .07891    .068842    .113073     .07891    .068842    .113073     .07891    .068842    .113073        0.0
                          0.0        0.0    .080196    .067761    .112288        0.0    .006667    .113333     .08017    .067554
                      .070335    .078847     .08493    .071848    .078847     .08493    .071848    .071949     .08182    .069018
                      .078895    .068825     .11305        0.0        0.0        0.0        0.0        0.0        0.0        0.0
                          0.0        0.0        0.0        0.0        0.0        0.0        0.0        0.0        0.0        0.0
                          0.0        0.0        0.0        0.0        0.0
Variable minima :  -586854.25 -471800.96 -434963.49 -586854.25 -471800.96 -434963.49 -586854.26 -471800.96 -434963.49        0.0
                          0.0        0.0 -924115.28  -728401.1 -511145.67 -428660.71  -428660.7  -428660.7 -.145214E7 -.100361E7
                   -.123009E7 -.111678E7 -821172.29 -843595.51 -.111678E7 -821172.29  -843595.5 -2134.0398 -2313.0896 -1598.0638
                   -.67528E-3 -.51471E-3 -.48709E-3        0.0   444.1976   1.416541    1.09448   13.10665   10.12675    .108078
                         420.    .058126    .020307    .338604    .239443   1.073707    .015792    .008759   698.1155   13.96231
                          0.0        0.0        0.0        0.0        0.0
Times of minima :     .068865    .076637    .103278    .068865    .076637    .103278    .068865    .076637    .103278        0.0
                          0.0        0.0    .070324    .078176    .102319        .01    .016667    .103333    .070319    .073566
                      .080252    .068852    .075079    .081644    .068852    .075079    .081644    .081873    .070775    .079076
                      .068852    .097698    .102846        0.0        0.0        0.0        0.0        0.0        0.0        0.0
                          0.0        0.0        0.0        0.0        0.0        0.0        0.0        0.0        0.0        0.0
                          0.0        0.0        0.0        0.0        0.0

Blank card terminating all plot cards.            |BLANK PLOT

Memory storage figures for the preceding, now-completed data case.  -------------------------------  Present   Program
A value of  "-9999"  indicates that no figure is available.         28-Feb-22  19:55:56              figure     limit  (name)
     Size List 1.   Number of electric network nodes.                                                   37      6000  (LBUS)
     Size List 2.   Number of electric network branches.                                                39     10000  (LBRNCH)
     Size List 3.   Number of data values in R, L, C tables.                                            45    192000  (LDATA)
     Size List 4.   Number of electric network sources.                                                  3       900  (LEXCT)
     Size List 5.   Storage for [Y] and triangularized [Y].   No. times =    3     Factors =    66     189    420000  (LYMAT)
     Size List 6.   Number of entries in switch table.                  No. flops = 18                  21      1200  (LSWTCH)
     Size List 7.   Number of distinct ALPHANUMERIC data names plus program SPY variables.              25     15000  (LSIZE7)
     Size List 8.   History points of distributed lines.                                              5516    120000  (LPAST)
     Size List 9.   Number of nonlinear elements.                                                        0      2250  (LNONL)
     Size List 10.  Points of nonlinear characteristics.                                                 0      3800  (LCHAR)
     Size List 11.  Number of Type-59 S.M. outputs.                                                      0       720  (LSMOUT)
     Size List 12.  Total number of EMTP output variables.                                              55      2000  (LSIZ12)
     Size List 13.  Working space for batch/SPY plotting.                                            -9999     72800  (LSIZ13)
     Size List 14.  S.M./U.M. connections to TACS.                                                   -9999       510  (LBSTAC)
     Size List 15.  Character storage in bytes for MODELS.                                            3299     90000  (LCTACS)
     Size List 16.  Total number of Type-59 S.M. masses.                                                 0       800  (LIMASS)
     Size List 17.  Number of Type-59 Synchronous machines.                                              0        90  (LSYN)
     Size List 18.  Branch and switch power/energy outputs.                                              0       254  (MAXPE)
     Size List 19.  Total floating-point TACS table space.                                              23    120000  (LTACST)
     Size List 20.  Non-copied recursive convolution data.                                               0    100000  (LFSEM)
     Size List 21.  Total modal/phase [T] matrix storage.                                                9      3000  (LFD)
     Size List 22.  Total recursive convolution history.                                                 0     15000  (LHIST)
     Size List 23.  Giant vectors for renumbering, phasors;  also extrema accumulation.                  93    192000  (LSIZ23)
     Size List 24.  Peak phases of compensation for data.                                                0       120  (LCOMP)
     Size List 25.  Total table space for all U.M usage.                                             -9999     45000  (LSPCUM)
     Size List 26.  Square of max number of coupled phases.                                              9    260000  (LSIZ26)
     Size List 27.  Maximum number of MODELS top variables.                                             44       600  (LSIZ27)
     Size List 28.  MODELS.  Total work space is divided into INTEGER and REAL.  1st, REAL:           1780    210000  (LRTACS)
                             Second  and last,  statistics for INTEGER work space.                    6838         0  (LITACS)
     Size List 29.  RAM disk used by "TAPSAV" table saving (limit is "LABCOM" size LTLABL).          -9999       600  (LSIZ29)
     Size List 30.  Taku Noda frequency-dependent circuits.                                              0        19  (LSIZ30)
Timing figures characterizing central processor (CP) solution speed.  ----------------------------   CP sec  Wait sec  Real sec
     Data input time (through blank card ending branches) ....                                       0.000     0.000     0.000
     Node renumbering and phasor solution  ....                                                      0.000     0.000     0.000
     After phasor solution, but before time-step loop  ....                                          0.016     0.000     0.016
     Integration of equations (time-step loop)  ....                                                 0.734     0.000     0.734
     Plotting or STATISTICS termination overlays ....                                                0.000     0.000     0.000
                                                                                                    ---------------------------
                                                                                          Totals      0.750     0.000     0.750

