   ---   236   cards of disk file read into card cache cells  1   onward.
 Comment card is ignored.      |C   LBUS  LBRNCH   LDATA   LEXCT   LYMAT  LSWTCH
 Limit CIDEAL cards =   200    |CARDS        200 { Limit of CIDEAL will be 2 mor
 1st card (Lists  1-10).       |    6000   10000  192000     900  420000    120
 Comment card is ignored.      |C LSMOUT  LSIZ12  LSIZ13  LBSTAC  LCTACS  LIMASS
 2nd card (Lists 11-20).       |     720    2000   72800     510   90000     80
 Comment card is ignored.      |C    LFD   LHIST  LSIZ23   NCOMP  LSPCUM  LSIZ26
 3rd card (Lists 21-30).       |    3000   15000  192000     120   45000  26000
 4th card (Lists 31-32).       |     200     300     { Optional card for Lists
 Comment card is ignored.      |C  LWORK  LMARTI
 Supplemental offsets.         |  840000     742
 <===> Done with  "/"-card sorting by data class.    Remember that the source file appears different from interpreted input data.
Alternative Transients Program (ATP),  GNU Linux or DOS.  All rights reserved by Can/Am user group of Portland, Oregon, USA.
 Date (dd-mth-yy) and time of day (hh.mm.ss) = 28-Feb-22  21:08:30   Name of disk plot file is  p\bdfinalisima\energizacion4344.pl4
Consult the 860-page ATP Rule Book of the Can/Am EMTP User Group in Portland,  Oregon, USA.  Source code date is 12 August 2008.
Total size of LABCOM tables = 10913436 INTEGER words.  31 VARDIM  List Sizes follow:  6002  10K  192K  900  420K  1200  15K
  120K  2250  3800  720  2K  72800  510  90K  800  90  254  120K  100K  3K  15K  192K  120  45K  260K  600  210K  1100  60  200
--------------------------------------------------+--------------------------------------------------------------------------------
Descriptive interpretation of input data cards.   |  Input data card images are shown below, all 80 columns, character by character
                                                  0         1         2         3         4         5         6         7         8
                                                  012345678901234567890123456789012345678901234567890123456789012345678901234567890
--------------------------------------------------+--------------------------------------------------------------------------------
Comment card.   NUMDCD = 1.                       |C data:D:\ATP\BDFINALISIMA\ENERGIZACION4344.ATP
Marker card preceding new EMTP data case.         |BEGIN NEW DATA CASE
Comment card.   NUMDCD = 3.                       |C --------------------------------------------------------
Comment card.   NUMDCD = 4.                       |C Generated by ATPDRAW  febrero, lunes 28, 2022
Comment card.   NUMDCD = 5.                       |C A Bonneville Power Administration program
Comment card.   NUMDCD = 6.                       |C by H. K. Høidalen at SEfAS/NTNU - NORWAY 1994-2016
Comment card.   NUMDCD = 7.                       |C --------------------------------------------------------
Comment card.   NUMDCD = 8.                       |C  dT  >< Tmax >< Xopt >< Copt ><Epsiln>
Misc. data.     1.000E-06   1.200E-01   5.000E+01 |   1.E-6     .12     50.
Misc. data.    500    1  0  1  1  0  0  0  0  0   |     500       1       0       1       1       0       0       0       0
  ///  Warning.  Nonzero XOPT or COPT differs from the power frequency of  6.00000000E+01  Hz.   Did the user really want this?
No TACS data,  but MODELS data begins (next).     |MODELS
      Another ordinary MODELS data card.          |OUTPUT
      Another ordinary MODELS data card.          |  AnVol
      Another ordinary MODELS data card.          |  LONG
      Another ordinary MODELS data card.          |  R0F
      Another ordinary MODELS data card.          |  R1F
      Another ordinary MODELS data card.          |  X0F
      Another ordinary MODELS data card.          |  X1F
      Another ordinary MODELS data card.          |  RDIVX
      Another ordinary MODELS data card.          |  RINSER
      Another ordinary MODELS data card.          |  CLOSE1
      Another ordinary MODELS data card.          |  RPpos
      Another ordinary MODELS data card.          |  RPcero
      Another ordinary MODELS data card.          |  LPpos
      Another ordinary MODELS data card.          |  LPcero
      Another ordinary MODELS data card.          |  CPpos
      Another ordinary MODELS data card.          |  CPcero
      Another ordinary MODELS data card.          |  Xp
      Another ordinary MODELS data card.          |  CR
      Another ordinary MODELS data card.          |  SIMET
      Another ordinary MODELS data card.          |  ENC1
      Another ordinary MODELS data card.          |  ENC2
      Another ordinary MODELS data card.          |  ENC1AS
      Another ordinary MODELS data card.          |  ENC2AS
      Another ordinary MODELS data card.          |MODEL DEFAULT
      Another ordinary MODELS data card.          |DATA AnVol,LONG,R0F,R1F,X0F,X1F,RDIVX,RINSER,CLOSE1,RPpos,RPcero,LPpos,LPcero
      Another ordinary MODELS data card.          |OUTPUT o1,o2,o3, o4, o5, o6, o7, o8, o9, o10, o11, o12, o13
      Another ordinary MODELS data card.          |VAR o1,o2,o3, o4, o5, o6, o7, o8, o9, o10, o11, o12, o13
      Another ordinary MODELS data card.          |INIT
      Another ordinary MODELS data card.          |  o1:=AnVol
      Another ordinary MODELS data card.          |  o2:=LONG
      Another ordinary MODELS data card.          |  o3:=R0F
      Another ordinary MODELS data card.          |  o4:=R1F
      Another ordinary MODELS data card.          |  o5:=X0F
      Another ordinary MODELS data card.          |  O6:=X1F
      Another ordinary MODELS data card.          |  o7:=RDIVX
      Another ordinary MODELS data card.          |  o8:=RINSER
      Another ordinary MODELS data card.          |  o9:=CLOSE1
      Another ordinary MODELS data card.          |  o10:=RPpos
      Another ordinary MODELS data card.          |  o11:=RPcero
      Another ordinary MODELS data card.          |  o12:=LPpos
      Another ordinary MODELS data card.          |  o13:=LPcero
      Another ordinary MODELS data card.          |
      Another ordinary MODELS data card.          |ENDINIT
      Another ordinary MODELS data card.          |EXEC
      Another ordinary MODELS data card.          |ENDEXEC
      Another ordinary MODELS data card.          |ENDMODEL
      Another ordinary MODELS data card.          |MODEL DEFAULT1
      Another ordinary MODELS data card.          |DATA CPpos,CPcero,Xp,CR,SIMET,ENC1,ENC2,ENC1AS,ENC2AS
      Another ordinary MODELS data card.          |OUTPUT o1, o2, o3, o4, o5, o6, o7, o8, o9
      Another ordinary MODELS data card.          |VAR o1, o2, o3, o4, o5, o6, o7, o8, o9
      Another ordinary MODELS data card.          |INIT
      Another ordinary MODELS data card.          |  o1:=CPpos
      Another ordinary MODELS data card.          |  o2:=CPcero
      Another ordinary MODELS data card.          |  o3:=Xp
      Another ordinary MODELS data card.          |  o4:=CR
      Another ordinary MODELS data card.          |  o5:=SIMET
      Another ordinary MODELS data card.          |  o6:=ENC1
      Another ordinary MODELS data card.          |  o7:=ENC2
      Another ordinary MODELS data card.          |  o8:=ENC1AS
      Another ordinary MODELS data card.          |  o9:=ENC2AS
      Another ordinary MODELS data card.          |
      Another ordinary MODELS data card.          |ENDINIT
      Another ordinary MODELS data card.          |EXEC
      Another ordinary MODELS data card.          |ENDEXEC
      Another ordinary MODELS data card.          |ENDMODEL
      Another ordinary MODELS data card.          |USE DEFAULT AS DEFAULT
      Another ordinary MODELS data card.          |DATA
      Another ordinary MODELS data card.          |  AnVol:=      0.0
      Another ordinary MODELS data card.          |  LONG:= 466.7446
      Another ordinary MODELS data card.          |  R0F:= 0.706323
      Another ordinary MODELS data card.          |  R1F:= 0.699495
      Another ordinary MODELS data card.          |  X0F:= 6.415017
      Another ordinary MODELS data card.          |  X1F:= 6.353003
      Another ordinary MODELS data card.          |  RDIVX:= 0.110105
      Another ordinary MODELS data card.          |  RINSER:=     380.
      Another ordinary MODELS data card.          |  CLOSE1:= 0.050184
      Another ordinary MODELS data card.          |  RPpos:= 0.029986
      Another ordinary MODELS data card.          |  RPcero:= 0.228931
      Another ordinary MODELS data card.          |  LPpos:= 0.414491
      Another ordinary MODELS data card.          |  LPcero:= 1.104444
      Another ordinary MODELS data card.          |OUTPUT
      Another ordinary MODELS data card.          |  AnVol:=o1
      Another ordinary MODELS data card.          |  LONG:=o2
      Another ordinary MODELS data card.          |  R0F:=o3
      Another ordinary MODELS data card.          |  R1F:=o4
      Another ordinary MODELS data card.          |  X0F:=o5
      Another ordinary MODELS data card.          |  X1F:=o6
      Another ordinary MODELS data card.          |  RDIVX:=o7
      Another ordinary MODELS data card.          |  RINSER:=o8
      Another ordinary MODELS data card.          |  CLOSE1:=o9
      Another ordinary MODELS data card.          |  RPpos:=o10
      Another ordinary MODELS data card.          |  RPcero:=o11
      Another ordinary MODELS data card.          |  LPpos:=o12
      Another ordinary MODELS data card.          |  LPcero:=o13
      Another ordinary MODELS data card.          |ENDUSE
      Another ordinary MODELS data card.          |USE DEFAULT1 AS DEF
      Another ordinary MODELS data card.          |DATA
      Another ordinary MODELS data card.          |  CPpos:= 0.012207
      Another ordinary MODELS data card.          |  CPcero:= 0.008304
      Another ordinary MODELS data card.          |  Xp:=  859.528
      Another ordinary MODELS data card.          |  CR:= 17.19056
      Another ordinary MODELS data card.          |  SIMET:=       1.
      Another ordinary MODELS data card.          |  ENC1:=       1.
      Another ordinary MODELS data card.          |  ENC2:=      0.0
      Another ordinary MODELS data card.          |  ENC1AS:=      0.0
      Another ordinary MODELS data card.          |  ENC2AS:=      0.0
      Another ordinary MODELS data card.          |OUTPUT
      Another ordinary MODELS data card.          |  CPpos:=o1
      Another ordinary MODELS data card.          |  CPcero:=o2
      Another ordinary MODELS data card.          |  Xp:=o3
      Another ordinary MODELS data card.          |  CR:=o4
      Another ordinary MODELS data card.          |  SIMET:=o5
      Another ordinary MODELS data card.          |  ENC1:=o6
      Another ordinary MODELS data card.          |  ENC2:=o7
      Another ordinary MODELS data card.          |  ENC1AS:=o8
      Another ordinary MODELS data card.          |  ENC2AS:=o9
      Another ordinary MODELS data card.          |ENDUSE
      Another ordinary MODELS data card.          |RECORD
      Another ordinary MODELS data card.          |  DEFAULT.o1 AS AnVOL
      Another ordinary MODELS data card.          |  DEFAULT.o2 AS LONG
      Another ordinary MODELS data card.          |  DEFAULT.o3 AS R0F
      Another ordinary MODELS data card.          |  DEFAULT.o4 AS R1F
      Another ordinary MODELS data card.          |  DEFAULT.o5 AS X0F
      Another ordinary MODELS data card.          |  DEFAULT.o6 AS X1F
      Another ordinary MODELS data card.          |  DEFAULT.o7 AS RDIVX
      Another ordinary MODELS data card.          |  DEFAULT.o8 AS RINSER
      Another ordinary MODELS data card.          |  DEFAULT.o9 AS CLOSE1
      Another ordinary MODELS data card.          |  DEFAULT.o10 AS RPpos
      Another ordinary MODELS data card.          |  DEFAULT.o11 AS RPcero
      Another ordinary MODELS data card.          |  DEFAULT.o12 AS LPpos
      Another ordinary MODELS data card.          |  DEFAULT.o13 AS LPcero
      Another ordinary MODELS data card.          |  DEF.o1 AS CPpos
      Another ordinary MODELS data card.          |  DEF.o2 AS CPcero
      Another ordinary MODELS data card.          |  DEF.o3 AS Xp
      Another ordinary MODELS data card.          |  DEF.o4 AS CR
      Another ordinary MODELS data card.          |  DEF.o5 AS SIMET
      Another ordinary MODELS data card.          |  DEF.o6 AS ENC1
      Another ordinary MODELS data card.          |  DEF.o7 AS ENC2
      Another ordinary MODELS data card.          |  DEF.o8 AS ENC1AS
      Another ordinary MODELS data card.          |  DEF.o9 AS ENC2AS
Termination of data for Laurent Dube`s MODELS.    |ENDMODELS
Comment card.   NUMDCD = 153.                     |C        1         2         3         4         5         6         7         8
Comment card.   NUMDCD = 154.                     |C 345678901234567890123456789012345678901234567890123456789012345678901234567890
Optional blank card follows last of MODELS data.  |BLANK MODELS
Comment card.   NUMDCD = 156.                     |C < n1 >< n2 ><ref1><ref2>< R  >< L  >< C  >
Comment card.   NUMDCD = 157.                     |C < n1 >< n2 ><ref1><ref2>< R  >< A  >< B  ><Leng><><>0
1st of coupled R-L.   7.06320E-01  2.04196E-02    |51IFUENASB1A              .706326.4150165234
2nd coil. 6.995E-01 2.022E-02 0.000E+00 0.000E+00 |52IFUENBSB1B              .699496.3530031409
Zca, Zcc= 2.277E-03 6.580E-05 7.018E-01 2.029E-02 |53IFUENCSB1C
Series R-L-C.   1.000E+09  0.000E+00  0.000E+00   |  SB1A                      1.E9                                               0
Series R-L-C.   1.000E+09  0.000E+00  0.000E+00   |  SB1B                      1.E9                                               0
Series R-L-C.   1.000E+09  0.000E+00  0.000E+00   |  SB1C                      1.E9                                               0
Series R-L-C.   8.595E+00  1.368E+00  0.000E+00   |  RSNSHA                  8.5953429.76                                         0
Series R-L-C.   8.595E+00  1.368E+00  0.000E+00   |  RSNSHB                  8.5953429.76                                         0
Series R-L-C.   8.595E+00  1.368E+00  0.000E+00   |  RSNSHC                  8.5953429.76                                         0
Series R-L-C.   1.000E+09  0.000E+00  0.000E+00   |  RSNNHA                    1.E9                                               0
Series R-L-C.   1.000E+09  0.000E+00  0.000E+00   |  RSNNHB                    1.E9                                               0
Series R-L-C.   1.000E+09  0.000E+00  0.000E+00   |  RSNNHC                    1.E9                                               0
Series R-L-C.   1.000E+09  0.000E+00  0.000E+00   |  SE2A                      1.E9                                               0
Series R-L-C.   1.000E+09  0.000E+00  0.000E+00   |  SE2B                      1.E9                                               0
Series R-L-C.   1.000E+09  0.000E+00  0.000E+00   |  SE2C                      1.E9                                               0
Series R-L-C.   2.500E+02  0.000E+00  3.000E-10   |  X0001B                    250.       .0003                                   0
Series R-L-C.   2.500E+02  0.000E+00  3.000E-10   |  X0002B                    250.       .0003                                   0
Series R-L-C.   1.000E-06  0.000E+00  0.000E+00   |  X0001ALN1A               1.E-6                                               0
Series R-L-C.   1.000E-06  0.000E+00  0.000E+00   |  SB1A  X0002A             1.E-6                                               0
Series R-L-C.   1.000E-06  0.000E+00  0.000E+00   |  X0001BLN1B               1.E-6                                               0
Series R-L-C.   1.000E-06  0.000E+00  0.000E+00   |  SB1B  X0002B             1.E-6                                               0
Series R-L-C.   1.000E-06  0.000E+00  0.000E+00   |  X0001CLN1C               1.E-6                                               0
Series R-L-C.   1.000E-06  0.000E+00  0.000E+00   |  SB1C  X0002C             1.E-6                                               0
Series R-L-C.   3.800E+02  0.000E+00  0.000E+00   |  XX0005X0002A              380.                                               0
Series R-L-C.   3.800E+02  0.000E+00  0.000E+00   |  XX0003X0002B              380.                                               0
Series R-L-C.   3.800E+02  0.000E+00  0.000E+00   |  XX0004X0002C              380.                                               0
Series R-L-C.   2.500E+02  0.000E+00  3.000E-10   |  X0001A                    250.       .0003                                   0
Series R-L-C.   1.000E+06  0.000E+00  0.000E+00   |  X0001AX0002A              1.E6                                               0
Series R-L-C.   1.000E+06  0.000E+00  0.000E+00   |  X0001BX0002B              1.E6                                               0
Series R-L-C.   1.000E+06  0.000E+00  0.000E+00   |  X0001CX0002C              1.E6                                               0
Series R-L-C.   2.500E+02  0.000E+00  3.000E-10   |  X0002C                    250.       .0003                                   0
Series R-L-C.   2.500E+02  0.000E+00  3.000E-10   |  X0002A                    250.       .0003                                   0
Series R-L-C.   2.500E+02  0.000E+00  3.000E-10   |  X0001C                    250.       .0003                                   0
Series R-L-C.   1.250E+02  0.000E+00  6.000E-10   |  X0001AX0002A              125.       .0006                                   0
Series R-L-C.   1.250E+02  0.000E+00  6.000E-10   |  X0001BX0002B              125.       .0006                                   0
Series R-L-C.   1.250E+02  0.000E+00  6.000E-10   |  X0001CX0002C              125.       .0006                                   0
 2.289E-01 1.104E+00 8.300E-03 6.508E+02 2.521E-03|-1LN1A  VFF2A             .228931.1044 .0083466.74 0 0                         0
 2.999E-02 4.145E-01 1.221E-02 3.287E+02 1.873E-03|-2LN1B  VFF2B             .02999.41449.01221466.74 0 0                         0
3rd or later transposed distributed phase.        |-3LN1C  VFF2C                                                                  0
Blank card ending branches.  IBR, NTOT = 39  31   |BLANK BRANCH
Comment card.   NUMDCD = 198.                     |C < n 1>< n 2>< Tclose ><Top/Tde ><   Ie   ><Vf/CLOP ><  type  >
Switch.  -1.00E+00  1.00E+01  0.00E+00  0.00E+00  |  LN1A  COMPA        -1.       10.                                             0
Switch.  -1.00E+00  1.00E+01  0.00E+00  0.00E+00  |  LN1B  COMPB        -1.       10.                                             0
Switch.  -1.00E+00  1.00E+01  0.00E+00  0.00E+00  |  LN1C  COMPC        -1.       10.                                             0
Switch.  -1.00E+00  1.00E+01  0.00E+00  0.00E+00  |  VFF2A RSNNHA       -1.       10.                                             0
Switch.  -1.00E+00  1.00E+01  0.00E+00  0.00E+00  |  VFF2B RSNNHB       -1.       10.                                             0
Switch.  -1.00E+00  1.00E+01  0.00E+00  0.00E+00  |  VFF2C RSNNHC       -1.       10.                                             0
Switch.   2.00E+00 -1.00E+00  0.00E+00  0.00E+00  |  VFF2A SE2A          2.       -1.                                             0
Switch.   2.00E+00 -1.00E+00  0.00E+00  0.00E+00  |  VFF2B SE2B          2.       -1.                                             0
Switch.   2.00E+00 -1.00E+00  0.00E+00  0.00E+00  |  VFF2C SE2C          2.       -1.                                             0
Switch.   5.02E-02  1.00E+03  0.00E+00  0.00E+00  |  X0001BXX0003.050184053      1.E3                                             0
Switch.   5.02E-02  1.00E+03  0.00E+00  0.00E+00  |  X0001CXX0004.050184053      1.E3                                             0
Switch.   5.77E-02  1.00E+03  0.00E+00  0.00E+00  |  XX0005X0002A.057684053      1.E3                                             0
Switch.   5.77E-02  1.00E+03  0.00E+00  0.00E+00  |  XX0003X0002B.057684053      1.E3                                             0
Switch.   5.77E-02  1.00E+03  0.00E+00  0.00E+00  |  XX0004X0002C.057684053      1.E3                                             0
Switch.   5.02E-02  1.00E+03  0.00E+00  0.00E+00  |  X0001AXX0005.050184053      1.E3                                             0
Permanently-closed switch used for metering.      |  VFUENAIFUENA                                        MEASURING                1
Permanently-closed switch used for metering.      |  VFUENBIFUENB                                        MEASURING                1
Permanently-closed switch used for metering.      |  VFUENCIFUENC                                        MEASURING                1
Permanently-closed switch used for metering.      |  COMPA RSNSHA                                        MEASURING                1
Permanently-closed switch used for metering.      |  COMPB RSNSHB                                        MEASURING                1
Permanently-closed switch used for metering.      |  COMPC RSNSHC                                        MEASURING                1
Blank card ending switches.   KSWTCH = 21.        |BLANK SWITCH
Comment card.   NUMDCD = 221.                     |C < n 1><>< Ampl.  >< Freq.  ><Phase/T0><   A1   ><   T1   >< TSTART >< TSTOP  >
Source.   4.29E+05  5.00E+01  0.00E+00 -1.00E+00  |14VFUENA  428660.705       50.                                     -1.      100.
Source.   4.29E+05  5.00E+01 -1.20E+02 -1.00E+00  |14VFUENB  428660.705       50.     -120.                           -1.      100.
Source.   4.29E+05  5.00E+01 -2.40E+02 -1.00E+00  |14VFUENC  428660.705       50.     -240.                           -1.      100.
Blank card ends electric sources.  KCONST = 3     |BLANK SOURCE
Pi-equivalent branches of distributed circuits are added to the table of List Size 3 between indices  40   and  45.

Sinusoidal steady-state phasor solution, branch by branch.   All flows are away from a bus,  and the real part,  magnitude,  or  "P"
is printed above the imaginary part,  the angle,  or  "Q".   The first solution frequency  =  5.00000000E+01  Hertz.
  Bus K                        Phasor  node  voltage              Phasor  branch  current               Power flow       Power loss
             Bus M         Rectangular            Polar          Rectangular            Polar            P  and  Q        P  and  Q

 IFUENA                    428660.705       428660.705       .4292904245683  .44567991757724      92009.968022599  .06947005532578
                                  0.0              0.0      .11975107642784       15.5865078      -25666.29042303        0.6309504

            SB1A      428661.16549461  428661.16550382      -.4292904245683  .44567991757724      -92009.89855254
                      -2.811048096091       -0.0003757      -.1197510764278     -164.4134922      25666.921373412

 IFUENB                  -214330.3525       428660.705      -.1109377379933  .44567991757127      92009.968023013  .06947005532409
                      -371231.0601341     -120.0000000      -.4316519514786     -104.4134922      -25666.29041678        0.6309504

            SB1B      -214333.0171864  428661.16550382      .11093773799333  .44567991757127      -92009.89855296
                      -371230.0534101     -120.0003757      .43165195147857       75.5865078      25666.921367162

 IFUENC                  -214330.3525       428660.705      -.3183526865799  .44567991757169      92009.968022875  .06947005532426
                      371231.06013415      120.0000000      .31190087507741      135.5865078      -25666.29041761        0.6309504

            SB1C      -214328.1483082  428661.16550382      .31835268657992  .44567991757169      -92009.89855282
                      371232.86445822      119.9996243      -.3119008750774      -44.4134922      25666.921367987

 SB1A                 428661.16549461  428661.16550382      .42866116549E-3   .4286611655E-3      91.875197405548  91.875197405548
                      -2.811048096091       -0.0003757      -.2811048096E-8       -0.0003757      .5399835039E-19        0.0000000

            TERRA                 0.0              0.0      -.4286611655E-3   .4286611655E-3                  0.0
                                  0.0              0.0      .28110480961E-8      179.9996243                  0.0

 SB1B                 -214333.0171864  428661.16550382      -.2143330172E-3   .4286611655E-3      91.875197405548  91.875197405548
                      -371230.0534101     -120.0003757      -.3712300534E-3     -120.0003757      -.217881269E-14        0.0000000

            TERRA                 0.0              0.0      .21433301719E-3   .4286611655E-3                  0.0
                                  0.0              0.0      .37123005341E-3       59.9996243                  0.0

 SB1C                 -214328.1483082  428661.16550382      -.2143281483E-3   .4286611655E-3      91.875197405548  91.875197405548
                      371232.86445822      119.9996243      .37123286446E-3      119.9996243      .3143318938E-14        0.0000000

            TERRA                 0.0              0.0      .21432814831E-3   .4286611655E-3                  0.0
                                  0.0              0.0      -.3712328645E-3      -60.0003757                  0.0

 RSNSHA               65.571776550195   1436.330012502      3.3403985712818  3.3414995019784       47.98592215894   47.98592215894
                       1434.832480443       87.3834061      -.0857689145348       -1.4708177      2399.2681938997     2399.2681939

            TERRA                 0.0              0.0      -3.340398571282  3.3414995019784                  0.0
                                  0.0              0.0      .08576891453475      178.5291823                  0.0

 RSNSHB               1209.8154899636   1436.330012502      -1.744477344483  3.3414995019784      47.985922158939  47.985922158939
                      -774.2030644852      -32.6165939      -2.849985564228     -121.4708177      2399.2681938997     2399.2681939

            TERRA                 0.0              0.0       1.744477344483  3.3414995019784                  0.0
                                  0.0              0.0      2.8499855642279       58.5291823                  0.0

 RSNSHC               -1275.387266514   1436.330012502      -1.595921226799  3.3414995019784      47.985922158939  47.985922158939
                      -660.6294159577     -152.6165939      2.9357544787627      118.5291823      2399.2681938997     2399.2681939

            TERRA                 0.0              0.0      1.5959212267988  3.3414995019784                  0.0
                                  0.0              0.0      -2.935754478763      -61.4708177                  0.0

 RSNNHA                103.3305795255  1726.7205412373      .10333057953E-6  .17267205412E-5      .00149078191377  .00149078191377
                      1723.6260089897       86.5692506       .1723626009E-5       86.5692506      -.333519223E-20        0.0000000

            TERRA                 0.0              0.0      -.1033305795E-6  .17267205412E-5                  0.0
                                  0.0              0.0      -.1723626009E-5      -93.4307494                  0.0

 RSNNHB               1441.0386206459  1726.7205412373      .14410386206E-5  .17267205412E-5      .00149078191377  .00149078191377
                      -951.2999113517      -33.4307494      -.9512999114E-6      -33.4307494      -.134995876E-19        0.0000000

            TERRA                 0.0              0.0      -.1441038621E-5  .17267205412E-5                  0.0
                                  0.0              0.0      .95129991135E-6      146.5692506                  0.0

 RSNNHC               -1544.369200171  1726.7205412373        -.15443692E-5  .17267205412E-5      .00149078191377  .00149078191377
                       -772.326097638     -153.4307494      -.7723260976E-6     -153.4307494      .3901645513E-19        0.0000000

            TERRA                 0.0              0.0      .15443692002E-5  .17267205412E-5                  0.0
                                  0.0              0.0      .77232609764E-6       26.5692506                  0.0

 X0001B               1209.8154898178  1436.3300126009      .72969606382E-4  .13537091443E-3      .22906605593E-5  .22906605593E-5
                      -774.2030648964      -32.6165939      .11402070434E-3       57.3820561      -.0972186535904       -0.0972187

            TERRA                 0.0              0.0      -.7296960638E-4  .13537091443E-3                  0.0
                                  0.0              0.0      -.1140207043E-3     -122.6179439                  0.0

 X0002B               -214333.0171863  428661.16550339      .03498713227712  .04040036304153      .20402366673641  .20402366673641
                      -371230.0534097     -120.0003757      -.0202012353313      -30.0017257      -8659.033351667    -8659.0333517

            TERRA                 0.0              0.0      -.0349871322771  .04040036304153                  0.0
                                  0.0              0.0      .02020123533131      149.9982743                  0.0

 X0001A               65.571776979198  1436.3300126009       .4290037196597  .43627943835107      70.988333385684  .95169874162E-7
                      1434.8324805223       87.3834061      .07934454515635       10.4784878      305.17285420657        0.0000000

            LN1A      65.571776550195   1436.330012502      -.4290037196597  .43627943835107      -70.98833329051
                       1434.832480443       87.3834061      -.0793445451563     -169.5215122      -305.1728542066

 SB1A                 428661.16549461  428661.16550382      .42887404561043  .44527886541557      91920.655807855  .99136634901E-7
                      -2.811048096091       -0.0003757      .11975107927498       15.6009040      -25666.92139841              0.0

            X0002A    428661.16549418  428661.16550339      -.4288740456104  .44527886541557      -91920.65580776
                      -2.811048215842       -0.0003757       -.119751079275     -164.3990960      25666.921398409

 X0001B               1209.8154898178  1436.3300126009      -.1457874532207   .4362794441173      70.988346776397  .95169876674E-7
                      -774.2030648964      -32.6165939      -.4112004035051     -109.5215099      305.17285534332              0.0

            LN1B      1209.8154899636   1436.330012502      .14578745322069   .4362794441173      -70.98834668123
                      -774.2030644852      -32.6165939      .41120040350506       70.4784901      -305.1728553433

 SB1B                 -214333.0171864  428661.16550382      -.1107109710574  .44524441543048      91912.948538203  .99121294284E-7
                      -371230.0534101     -120.0003757      -.4312605597079     -104.3977664      -25667.06862847              0.0

            X0002B    -214333.0171863  428661.16550339      .11071097105742  .44524441543048       -91912.9485381
                      -371230.0534097     -120.0003757      .43126055970788       75.6022336       25667.06862847

 X0001C               -1275.387266797  1436.3300126009      -.2832161953847  .43627941052561      70.988293785719  .95169862033E-7
                      -660.6294156259     -152.6165939      .33185585834872      130.4784812      305.17284290137              0.0

            LN1C      -1275.387266514   1436.330012502      .28321619538474  .43627941052561      -70.98829369055
                      -660.6294159577     -152.6165939      -.3318558583487      -49.5215188      -305.1728429014

 SB1C                 -214328.1483082  428661.16550382      -.3181339707226  .44526233282376      91917.137183455  .99129273678E-7
                      371232.86445822      119.9996243      .31152740120888      135.6011400      -25666.34709221        0.0000000

            X0002C    -214328.1483079  428661.16550339      .31813397072256  .44526233282376      -91917.13718336
                      371232.86445791      119.9996243      -.3115274012089      -44.3988600      25666.347092213

 XX0005               428661.16549418  428661.16550339                  0.0              0.0                  0.0              0.0
                      -2.811048215842       -0.0003757                  0.0              0.0                  0.0              0.0

            X0002A    428661.16549418  428661.16550339                  0.0              0.0                  0.0
                      -2.811048215842       -0.0003757                  0.0              0.0                  0.0

 XX0003               -214333.0171863  428661.16550339                  0.0              0.0                  0.0              0.0
                      -371230.0534097     -120.0003757                  0.0              0.0                  0.0              0.0

            X0002B    -214333.0171863  428661.16550339                  0.0              0.0                  0.0
                      -371230.0534097     -120.0003757                  0.0              0.0                  0.0

 XX0004               -214328.1483079  428661.16550339                  0.0              0.0                  0.0              0.0
                      371232.86445791      119.9996243                  0.0              0.0                  0.0              0.0

            X0002C    -214328.1483079  428661.16550339                  0.0              0.0                  0.0
                      371232.86445791      119.9996243                  0.0              0.0                  0.0

 X0001A               65.571776979198  1436.3300126009      -.1352296297E-3  .13537091443E-3      .22906605593E-5  .22906605593E-5
                      1434.8324805223       87.3834061      .61831806583E-5      177.3820561      -.0972186535904       -0.0972187

            TERRA                 0.0              0.0      .13522962971E-3  .13537091443E-3                  0.0
                                  0.0              0.0      -.6183180658E-5       -2.6179439                  0.0

 X0001A               65.571776979198  1436.3300126009      -.4285955937172   .4285980048632      -13.02049852752  91848.124886356
                      1434.8324805223       87.3834061      .00143764352874      179.8078128      -307.5285738575        0.0000000

            X0002A    428661.16549418  428661.16550339       .4285955937172   .4285980048632      91861.145384884
                      -2.811048215842       -0.0003757      -.0014376435287       -0.1921872      307.52857385751

 X0001B               1209.8154898178  1436.3300126009      .21554283267607   .4285980048632      -13.02049852752  91848.124886356
                      -774.2030648964      -32.6165939       .3704558503448       59.8078128      -307.5285738575        0.0000000

            X0002B    -214333.0171863  428661.16550339      -.2155428326761   .4285980048632      91861.145384884
                      -371230.0534097     -120.0003757      -.3704558503448     -120.1921872      307.52857385752

 X0001C               -1275.387266797  1436.3300126009      .21305276104113   .4285980048632      -13.02049852752  91848.124886356
                      -660.6294156259     -152.6165939      -.3718934938735      -60.1921872      -307.5285738575        0.0000000

            X0002C    -214328.1483079  428661.16550339      -.2130527610411   .4285980048632      91861.145384884
                      371232.86445791      119.9996243      .37189349387354      119.8078128      307.52857385751

 X0002C               -214328.1483079  428661.16550339      -.0349883491233  .04040036304153      .20402366673645  .20402366673645
                      371232.86445791      119.9996243      -.0201991276919     -150.0017257      -8659.033351667    -8659.0333517

            TERRA                 0.0              0.0       .0349883491233  .04040036304153                  0.0
                                  0.0              0.0       .0201991276919       29.9982743                  0.0

 X0002A               428661.16549418  428661.16550339      .12168461803E-5  .04040036304153      .20402366673589  .20402366673589
                      -2.811048215842       -0.0003757       .0404003630232       89.9982743      -8659.033351667    -8659.0333517

            TERRA                 0.0              0.0       -.121684618E-5  .04040036304153                  0.0
                                  0.0              0.0      -.0404003630232      -90.0017257                  0.0

 X0001C               -1275.387266797  1436.3300126009      .62260023329E-4  .13537091443E-3      .22906605593E-5  .22906605593E-5
                      -660.6294156259     -152.6165939       -.120203885E-3      -62.6179439      -.0972186535904       -0.0972187

            TERRA                 0.0              0.0      -.6226002333E-4  .13537091443E-3                  0.0
                                  0.0              0.0        .120203885E-3      117.3820561                  0.0

 X0001A               65.571776979198  1436.3300126009      -.2728929518E-3  .08078882058286      -57.96782830003  .40792709569812
                      1434.8324805223       87.3834061      -.0807883596851      -90.1935372       2.452940316432   -17312.9636537

            X0002A    428661.16549418  428661.16550339      .27289295178E-3  .08078882058286      58.375755395725
                      -2.811048215842       -0.0003757      .08078835968509       89.8064628      -17315.41659404

 X0001B               1209.8154898178  1436.3300126009      -.0698283253415  .08078882058286      -57.96782830003  .40792709569905
                      -774.2030648964      -32.6165939       .0406305120713      149.8064628       2.452940316432   -17312.9636537

            X0002B    -214333.0171863  428661.16550339      .06982832534147  .08078882058286      58.375755395726
                      -371230.0534097     -120.0003757      -.0406305120713      -30.1935372      -17315.41659404

 X0001C               -1275.387266797  1436.3300126009      .07010121829325  .08078882058286      -57.96782830003  .40792709569865
                      -660.6294156259     -152.6165939      .04015784761379       29.8064628       2.452940316432   -17312.9636537

            X0002C    -214328.1483079  428661.16550339      -.0701012182932  .08078882058286      58.375755395726
                      371232.86445791      119.9996243      -.0401578476138     -150.1935372      -17315.41659404

 LN1A                 65.571776550195   1436.330012502       -2.91139485664  2.9160731214849      23.002376223797  23.000885441883
                       1434.832480443       87.3834061      .16511341126277      176.7540718      -2094.095341705    -2094.0953417

            VFF2A      103.3305795255  1726.7205412373      -.1033305794E-6  .17267205409E-5      -.0014907819135
                      1723.6260089897       86.5692506      -.1723626009E-5      -93.4307494      .6530639713E-13

 LN1B                 1209.8154899636   1436.330012502      1.5986898369789  2.9160731214849      23.002376223797  23.000885441884
                      -774.2030644852      -32.6165939      2.4387852006659       56.7540718      -2094.095341705    -2094.0953417

            VFF2B     1441.0386206459  1726.7205412373      -.1441038621E-5  .17267205412E-5      -.0014907819138
                      -951.2999113517      -33.4307494       .9512999111E-6      146.5692507      .2560293411E-12

 LN1C                 -1275.387266514   1436.330012502      1.3127050196608  2.9160731214849      23.002376223797  23.000885441883
                      -660.6294159577     -152.6165939      -2.603898611929      -63.2459282      -2094.095341705    -2094.0953417

            VFF2C     -1544.369200171  1726.7205412373      .15443692007E-5  .17267205414E-5      -.0014907819139
                       -772.326097638     -153.4307494      .77232609682E-6       26.5692506      -.845207182E-12
     Total network loss  P-loss  by summing injections =   2.760253624589E+05

Output for steady-state phasor switch currents.
      Node-K    Node-M            I-real            I-imag            I-magn          Degrees        Power            Reactive
      LN1A      COMPA         3.34039857E+00   -8.57686276E-02    3.34149950E+00      -1.4708    4.79861281E+01    2.39926819E+03
      LN1B      COMPB        -1.74447721E+00   -2.84998560E+00    3.34149946E+00    -121.4708    4.79860170E+01    2.39926816E+03
      LN1C      COMPC        -1.59592112E+00    2.93575454E+00    3.34149951E+00     118.5292    4.79858353E+01    2.39926820E+03
      VFF2A     RSNNHA        1.03330579E-07    1.72362601E-06    1.72672054E-06      86.5693    1.49078191E-03   -5.03410054E-13
      VFF2B     RSNNHB        1.44103862E-06   -9.51299912E-07    1.72672054E-06     -33.4307    1.49078191E-03    4.26824864E-14
      VFF2C     RSNNHC       -1.54436920E-06   -7.72326097E-07    1.72672054E-06    -153.4307    1.49078191E-03    7.46579649E-13
      VFF2A     SE2A              Open              Open              Open             Open          Open              Open
      VFF2B     SE2B              Open              Open              Open             Open          Open              Open
      VFF2C     SE2C              Open              Open              Open             Open          Open              Open
      X0001B    XX0003            Open              Open              Open             Open          Open              Open
      X0001C    XX0004            Open              Open              Open             Open          Open              Open
      XX0005    X0002A            Open              Open              Open             Open          Open              Open
      XX0003    X0002B            Open              Open              Open             Open          Open              Open
      XX0004    X0002C            Open              Open              Open             Open          Open              Open
      X0001A    XX0005            Open              Open              Open             Open          Open              Open
      VFUENA    IFUENA        4.29290425E-01    1.19751076E-01    4.45679918E-01      15.5865    9.20099680E+04   -2.56662904E+04
      VFUENB    IFUENB       -1.10937738E-01   -4.31651951E-01    4.45679918E-01    -104.4135    9.20099680E+04   -2.56662904E+04
      VFUENC    IFUENC       -3.18352687E-01    3.11900875E-01    4.45679918E-01     135.5865    9.20099680E+04   -2.56662904E+04
      COMPA     RSNSHA        3.34039857E+00   -8.57686276E-02    3.34149950E+00      -1.4708    4.79861281E+01    2.39926819E+03
      COMPB     RSNSHB       -1.74447721E+00   -2.84998560E+00    3.34149946E+00    -121.4708    4.79860170E+01    2.39926816E+03
      COMPC     RSNSHC       -1.59592112E+00    2.93575454E+00    3.34149951E+00     118.5292    4.79858353E+01    2.39926820E+03

Solution at nodes with known voltage.   Nodes that are shorted together by switches are shown as a group of names, with the printed
result applying to the composite group.   The entry "MVA" is  SQRT( P**2 + Q**2 )  in units of power,  while  "P.F."  is the
associated power factor.
              Node                Source  node  voltage             Injected  source  current              Injected  source  power
              name         Rectangular            Polar          Rectangular            Polar            P  and  Q    MVA and P.F.

               VFUENA
              IFUENA       428660.705       428660.705      .42929042456852  .44567991757357      92009.968022646  95522.733835713
                                  0.0              0.0      .11975107641337       15.5865078      -25666.29041993        0.9632259

               VFUENB
              IFUENB     -214330.3525       428660.705       -.110937737993  .44567991757211      92009.968023151  95522.733835401
                      -371231.0601341     -120.0000000      -.4316519514795     -104.4134922      -25666.29041696        0.9632259

               VFUENC
              IFUENC     -214330.3525       428660.705      -.3183526865778  .44567991757042      92009.968022717  95522.733835039
                      371231.06013415      120.0000000       .3119008750778      135.5865078      -25666.29041717        0.9632259

  +++  Node  "COMPC "  has no connected linear branches.  Add (to ground) the conductance  G = 1.00000000E-18  mhos.
  +++  Node  "COMPB "  has no connected linear branches.  Add (to ground) the conductance  G = 1.00000000E-18  mhos.
  +++  Node  "COMPA "  has no connected linear branches.  Add (to ground) the conductance  G = 1.00000000E-18  mhos.
Card of names for time-step loop output.          |  LN1A  LN1B  LN1C  COMPA COMPB COMPC SB1A  SB1B  SB1C  SE2A  SE2B  SE2C  VFF2A
Card of names for time-step loop output.          |  VFF2B VFF2C IFUENAIFUENBIFUENC
Card of names for time-step loop output.          |-5VFF2A VFF2B VFF2B VFF2C VFF2C VFF2A LN1A  LN1B  LN1B  LN1C  LN1C  LN1A
Card of names for time-step loop output.          |-5SB1A  SB1B  SB1B  SB1C  SB1C  SB1A
Blank card ending requests for output variables.  |BLANK OUTPUT

Column headings for the  55   EMTP output variables follow.  These are divided among the 5 possible classes as follows ....
  First  27     output variables are electric-network voltage differences (upper voltage minus lower voltage);
  Next   6     output variables are branch currents (flowing from the upper node to the lower node);
  Next   22     output variables belong to MODELS (with "MODELS" an internally-added upper name of pair).
   Step      Time      LN1A       LN1B       LN1C       COMPA      COMPB      COMPC      SB1A       SB1B       SB1C       SE2A
 

                       SE2B       SE2C       VFF2A      VFF2B      VFF2C      IFUENA     IFUENB     IFUENC     VFF2A      VFF2B
                                                                                                               VFF2B      VFF2C

                       VFF2C      LN1A       LN1B       LN1C       SB1A       SB1B       SB1C       VFUENA     VFUENB     VFUENC
                       VFF2A      LN1B       LN1C       LN1A       SB1B       SB1C       SB1A       IFUENA     IFUENB     IFUENC

                       COMPA      COMPB      COMPC      MODELS     MODELS     MODELS     MODELS     MODELS     MODELS     MODELS
                       RSNSHA     RSNSHB     RSNSHC     ANVOL      LONG       R0F        R1F        X0F        X1F        RDIVX

                       MODELS     MODELS     MODELS     MODELS     MODELS     MODELS     MODELS     MODELS     MODELS     MODELS
                       RINSER     CLOSE1     RPPOS      RPCERO     LPPOS      LPCERO     CPPOS      CPCERO     XP         CR

                       MODELS     MODELS     MODELS     MODELS     MODELS
                       SIMET      ENC1       ENC2       ENC1AS     ENC2AS
 ***      Phasor I(0) =  3.3403986E+00                     Switch  "LN1A  "  to  "COMPA "  closed in the steady-state.
 ***      Phasor I(0) = -1.7444772E+00                     Switch  "LN1B  "  to  "COMPB "  closed in the steady-state.
 ***      Phasor I(0) = -1.5959211E+00                     Switch  "LN1C  "  to  "COMPC "  closed in the steady-state.
 ***      Phasor I(0) =  1.0333058E-07                     Switch  "VFF2A "  to  "RSNNHA"  closed in the steady-state.
 ***      Phasor I(0) =  1.4410386E-06                     Switch  "VFF2B "  to  "RSNNHB"  closed in the steady-state.
 ***      Phasor I(0) = -1.5443692E-06                     Switch  "VFF2C "  to  "RSNNHC"  closed in the steady-state.
 ***      Phasor I(0) =  4.2929042E-01                     Switch  "VFUENA"  to  "IFUENA"  closed in the steady-state.
 ***      Phasor I(0) = -1.1093774E-01                     Switch  "VFUENB"  to  "IFUENB"  closed in the steady-state.
 ***      Phasor I(0) = -3.1835269E-01                     Switch  "VFUENC"  to  "IFUENC"  closed in the steady-state.
 ***      Phasor I(0) =  3.3403986E+00                     Switch  "COMPA "  to  "RSNSHA"  closed in the steady-state.
 ***      Phasor I(0) = -1.7444772E+00                     Switch  "COMPB "  to  "RSNSHB"  closed in the steady-state.
 ***      Phasor I(0) = -1.5959211E+00                     Switch  "COMPC "  to  "RSNSHC"  closed in the steady-state.
      0       0.0  65.5717766 1209.81549 -1275.3873 65.5717766 1209.81549 -1275.3873 428661.165 -214333.02 -214328.15        0.0
                          0.0        0.0  103.33058 1441.03862 -1544.3692 428660.705 -214330.35 -214330.35  -1337.708 2985.40782
                   -1647.6998 -1144.2437 2485.20276  -1340.959 642994.183 -4.8688781 -642989.31 .429290425 -.11093774 -.31835269
                   3.34039857 -1.7444772 -1.5959211        0.0   466.7446    .706323    .699495   6.415017   6.353003    .110105
                         380.    .050184    .029986    .228931    .414491   1.104444    .012207    .008304    859.528   17.19056
                          1.0        1.0        0.0        0.0        0.0
    500     .5E-3  -159.69269 1316.03264 -1156.3399 -159.69269 1316.03264 -1156.3399 423384.076 -153621.05 -269763.03        0.0
                          0.0        0.0  -167.5761 1572.11312  -1404.537  423383.18 -153618.26 -269764.92 -1739.6892 2976.65014
                   -1236.9609 -1475.7253 2472.37258 -996.64725 577005.123  116141.98  -693147.1 .405281214 -.04205008 -.36323113
                   3.31268992 -1.2771639 -2.0355259        0.0   466.7446    .706323    .699495   6.415017   6.353003    .110105
                         380.    .050184    .029986    .228931    .414491   1.104444    .012207    .008304    859.528   17.19056
                          1.0        1.0        0.0        0.0        0.0
   1000     .1E-2  -381.02516 1389.84479 -1008.8196 -381.02516 1389.84479 -1008.8196 407681.863 -89126.417 -318555.45        0.0
                          0.0        0.0  -434.3565 1664.47699 -1230.1205 407680.557 -89123.572 -318556.98 -2098.8335 2894.59748
                   -795.76399   -1770.87 2398.66443 -627.79447 496808.281 229429.029 -726237.31 .371282882 .027877866 -.39916075
                   3.20341189 -.77840257 -2.4250093        0.0   466.7446    .706323    .699495   6.415017   6.353003    .110105
                         380.    .050184    .029986    .228931    .414491   1.104444    .012207    .008304    859.528   17.19056
                          1.0        1.0        0.0        0.0        0.0
   1500     .0015  -592.97543 1429.43432 -836.45888 -592.97543 1429.43432 -836.45888 381941.171 -22437.199 -359503.97        0.0
                          0.0        0.0 -690.44161 1715.85592 -1025.4143 381939.485 -22434.368 -359505.12 -2406.2975 2741.27023
                   -334.97271 -2022.4097  2265.8932 -243.48345 404378.371 337066.773 -741445.14 .328142734 .097119167  -.4252619
                   3.01525521 -.26047439 -2.7547808        0.0   466.7446    .706323    .699495   6.415017   6.353003    .110105
                         380.    .050184    .029986    .228931    .414491   1.104444    .012207    .008304    859.528   17.19056
                          1.0        1.0        0.0        0.0        0.0
   2000      .002  -790.32468  1433.8264 -643.50172 -790.32468  1433.8264 -643.50172  346795.82 44804.4973 -391600.32        0.0
                          0.0        0.0 -929.52504  1724.9844 -795.45935 346793.795 44807.2448 -391601.04 -2654.5094 2520.44375
                   134.065691 -2224.1511 2077.32813 146.822959 301991.323 436404.814 -738396.14 .276922593 .163969085 -.44089168
                   2.75285288 .263867587 -3.0167206        0.0   466.7446    .706323    .699495   6.415017   6.353003    .110105
                         380.    .050184    .029986    .228931    .414491   1.104444    .012207    .008304    859.528   17.19056
                          1.0        1.0        0.0        0.0        0.0
   2500     .0025  -968.21352 1402.91295 -434.69943 -968.21352 1402.91295 -434.69943 303111.205 110942.958 -414054.16        0.0
                          0.0        0.0 -1145.7219 1691.63876 -545.91689 303108.891 110945.554 -414054.45 -2837.3606 2237.55564
                   599.804986 -2371.1265 1837.61237 533.514091 192168.247 524997.121 -717165.37 .218883733 .226781525 -.44566526
                   2.42266622 .781712448 -3.2043786        0.0   466.7446    .706323    .699495   6.415017   6.353003    .110105
                         380.    .050184    .029986    .228931    .414491   1.104444    .012207    .008304    859.528   17.19056
                          1.0        1.0        0.0        0.0        0.0
   3000      .003  -1122.2617 1337.45512 -215.19339 -1122.2617 1337.45512 -215.19339 251962.986 174349.635 -426312.62        0.0
                          0.0        0.0 -1333.7065 1616.63901 -282.93248 251960.441 174352.016 -426312.46 -2950.3455 1899.57149
                   1050.77404 -2459.7168 1552.64851 907.068331 77613.3501 600662.256 -678275.61 .155455213 .284009858 -.43946507
                   2.03282548 1.28030877 -3.3131342        0.0   466.7446    .706323    .699495   6.415017   6.353003    .110105
                         380.    .050184    .029986    .228931    .414491   1.104444    .012207    .008304    859.528   17.19056
                          1.0        1.0        0.0        0.0        0.0
   3500     .0035  -1248.6761  1239.0647 9.61141964 -1248.6761  1239.0647 9.61141964 194610.601 233463.246 -428073.85        0.0
                          0.0        0.0 -1488.8509 1501.83224 -12.981347 194607.888 233465.353 -428073.24 -2990.6831 1514.81359
                   1475.86955 -2487.7408 1229.45328 1258.28754 -38852.644 661537.093 -622684.45 .088198868 .334244927 -.42244379
                   1.59292988 1.74737946 -3.3403094        0.0   466.7446    .706323    .699495   6.415017   6.353003    .110105
                         380.    .050184    .029986    .228931    .414491   1.104444    .012207    .008304    859.528   17.19056
                          1.0        1.0        0.0        0.0        0.0
   4000      .004  -1344.3439 1110.16434  234.17956 -1344.3439 1110.16434  234.17956 132466.269 286828.211 -419294.48        0.0
                          0.0        0.0 -1607.3348 1350.04536 257.289449 132463.443 286829.997 -419293.44 -2957.3802 1092.75591
                   1864.62426 -2454.5082 875.984782 1578.52346 -154361.94 706122.692 -551760.75 .018768349 .376250991 -.39501934
                   1.11381103 2.17142409 -3.2852351        0.0   466.7446    .706323    .699495   6.415017   6.353003    .110105
                         380.    .050184    .029986    .228931    .414491   1.104444    .012207    .008304    859.528   17.19056
                          1.0        1.0        0.0        0.0        0.0
   4500     .0045  -1406.9095 953.928122 452.981425 -1406.9095 953.928122 452.981425 67060.1561 333130.525 -400190.68        0.0
                          0.0        0.0 -1686.2408 1165.01591 521.224907 67057.3081 333131.936 -400189.24 -2851.2567 643.790999
                   2207.46572 -2360.8377 500.946697 1859.89097 -266070.37 733321.206 -467250.84 -.05111909 .408989895  -.3578708
                   .607266483 2.54200111 -3.1492675        0.0   466.7446    .706323    .699495   6.415017   6.353003    .110105
                         380.    .050184    .029986    .228931    .414491   1.104444    .012207    .008304    859.528   17.19056
                          1.0        1.0        0.0        0.0        0.0
   5000      .005  -1434.8325  774.20305  660.62941 -1434.8325  774.20305  660.62941 2.81106682 371230.053 -371232.86        0.0
                          0.0        0.0  -1723.626 951.299892  772.32608 -.45661E-7  371231.06 -371231.06 -2674.9259 178.973811
                   2495.95205 -2209.0355 113.573639 2095.46187 -371227.24 742462.918 -371235.68 -.11975111  .43165976 -.31190865
                   .085768937 2.84998548 -2.9357544        0.0   466.7446    .706323    .699495   6.415017   6.353003    .110105
                         380.    .050184    .029986    .228931    .414491   1.104444    .012207    .008304    859.528   17.19056
                          1.0        1.0        0.0        0.0        0.0
   5500     .0055   -1427.425 575.414493 852.010475  -1427.425 575.414493 852.010475 -67054.604 400188.666 -333134.06        0.0
                          0.0        0.0 -1718.5697 714.159716 1004.41002 -67057.308 400189.244 -333131.94 -2432.7295 -290.25031
                   2722.97976 -2002.8395 -276.59598 2279.43544 -467243.27 733322.729 -266079.46 -.18543397 .443700484 -.25826652
                   -.43784052 3.08779374 -2.6499533        0.0   466.7446    .706323    .699495   6.415017   6.353003    .110105
                         380.    .050184    .029986    .228931    .414491   1.104444    .012207    .008304    859.528   17.19056
                          1.0        1.0        0.0        0.0        0.0
   6000      .006  -1384.8695 362.457308 1022.41223 -1384.8695 362.457308 1022.41223 -132460.91 419293.306 -286832.39        0.0
                          0.0        0.0 -1671.1961  459.43428 1211.76182 -132463.44  419293.44   -286830. -2130.6304 -752.32754
                   2882.95792 -1747.3268 -659.95492 2407.28176 -551754.22 706125.701 -154371.48 -.24655085 .444815846 -.19826499
                   -.95066877 3.24957038 -2.2989015        0.0   466.7446    .706323    .699495   6.415017   6.353003    .110105
                         380.    .050184    .029986    .228931    .414491   1.104444    .012207    .008304    859.528   17.19056
                          1.0        1.0        0.0        0.0        0.0
   6500     .0065   -1308.214 140.575246 1167.63879  -1308.214 140.575246 1167.63879 -194605.59 428073.553 -233467.96        0.0
                          0.0        0.0 -1582.6731 193.396608 1389.27652 -194607.89  428073.24 -233465.35 -1776.0697 -1195.8799
                   2971.94965 -1448.7893 -1027.0635 2475.85282 -622679.15 661541.514 -38862.369 -.30159685 .434978367 -.13338152
                   -1.4400885 3.33133175 -1.8912433        0.0   466.7446    .706323    .699495   6.415017   6.353003    .110105
                         380.    .050184    .029986    .228931    .414491   1.104444    .012207    .008304    859.528   17.19056
                          1.0        1.0        0.0        0.0        0.0
   7000      .007   -1199.346  -84.76825 1284.11421  -1199.346  -84.76825 1284.11421 -251958.44 426313.209 -174354.77        0.0
                          0.0        0.0 -1455.1789 -77.403435 1532.58232 -251960.44 426312.457 -174352.02 -1377.7755 -1609.9858
                   2987.76121 -1114.5777 -1368.8825 2483.46016 -678271.65  600667.98 77603.6655 -.34921653 .414430279 -.06521375
                   -1.8940485 3.33106469 -1.4370162        0.0   466.7446    .706323    .699495   6.415017   6.353003    .110105
                         380.    .050184    .029986    .228931    .414491   1.104444    .012207    .008304    859.528   17.19056
                          1.0        1.0        0.0        0.0        0.0
   7500     .0075  -1060.9467 -308.02413 1368.97087 -1060.9467 -308.02413 1368.97087 -303107.23 414055.618 -110948.39        0.0
                          0.0        0.0 -1291.8534 -346.29753 1638.15092 -303108.89 414054.446 -110945.55 -945.55587 -1984.4484
                   2930.00432  -752.9226  -1676.995 2429.91761 -717162.85 525004.007 192158.839 -.38823705 .383677401 .004559646
                   -2.3013706 3.24877573 -.94740506        0.0   466.7446    .706323    .699495   6.415017   6.353003    .110105
                         380.    .050184    .029986    .228931    .414491   1.104444    .012207    .008304    859.528   17.19056
                          1.0        1.0        0.0        0.0        0.0
   8000      .008  -896.42199 -523.69615 1420.11814 -896.42199 -523.69615 1420.11814 -346792.51 391602.602 -44810.091        0.0
                          0.0        0.0 -1096.7181 -606.66464 1703.38275  -346793.8  391601.04 -44807.245 -490.05348 -2310.0474
                   2800.10087 -372.72584 -1943.8143 2316.54013 -738395.11 436412.693 301982.419 -.41769867   .3434775 .074221171
                   -2.6520254 3.08649119 -.43446569        0.0   466.7446    .706323    .699495   6.415017   6.353003    .110105
                         380.    .050184    .029986    .228931    .414491   1.104444    .012207    .008304    859.528   17.19056
                          1.0        1.0        0.0        0.0        0.0
   8500     .0085  -709.82517 -726.47262 1436.29779 -709.82517 -726.47262 1436.29779 -381938.62 359507.035 22431.5853        0.0
                          0.0        0.0 -874.57804 -852.09363 1726.67167 -381939.48 359505.117 22434.3679 -22.484406 -2578.7653
                   2601.24971 16.6474508 -2162.7704 2146.12297 -741445.65 337075.449 404370.205 -.43687424  .29481958  .14205466
                   -2.9373785 2.84820697 .089171635        0.0   466.7446    .706323    .699495   6.415017   6.353003    .110105
                         380.    .050184    .029986    .228931    .414491   1.104444    .012207    .008304    859.528   17.19056
                          1.0        1.0        0.0        0.0        0.0
   9000      .009  -505.75009 -911.36094 1417.11103 -505.75009 -911.36094 1417.11103 -407680.13 318559.208  89120.918        0.0
                          0.0        0.0 -630.90295 -1076.5413  1707.4442 -407680.56 318556.985  89123.572 445.638311 -2783.9855
                   2338.34715 405.610857  -2328.472 1922.86111 -726239.33  229438.29 496801.044 -.44529316 .238902549 .206390614
                   -3.1504036 2.53979039 .610613317        0.0   466.7446    .706323    .699495   6.415017   6.353003    .110105
                         380.    .050184    .029986    .228931    .414491   1.104444    .012207    .008304    859.528   17.19056
                          1.0        1.0        0.0        0.0        0.0
   9500     .0095  -289.22171 -1073.8086 1363.03028 -289.22171 -1073.8086 1363.03028  -423383.2 269767.397 153615.799        0.0
                          0.0        0.0 -371.69236 -1274.4812 1646.17354 -423383.18 269764.922 153618.258  902.78882 -2920.6547
                   2017.86589 784.586863 -2436.8389 1652.25199 -693150.59 116151.598 576998.994 -.44274717 .177102786 .265644387
                   -3.2858554 2.16883573 1.11701958        0.0   466.7446    .706323    .699495   6.415017   6.353003    .110105
                         380.    .050184    .029986    .228931    .414491   1.104444    .012207    .008304    859.528   17.19056
                          1.0        1.0        0.0        0.0        0.0
  10000       .01  -65.571786 -1209.8154 1275.38721 -65.571786 -1209.8154 1275.38721 -428661.17 214333.017 214328.148        0.0
                          0.0        0.0 -103.33045 -1441.0386 1544.36906 -428660.71 214330.353 214330.352 1337.70816 -2985.4077
                   1647.69951 1144.24364 -2485.2026 1340.95899 -642994.18 4.86897803 642989.314  -.4292994 .110942225 .318357175
                   -3.3403984 1.74447727 1.59592111        0.0   466.7446    .706323    .699495   6.415017   6.353003    .110105
                         380.    .050184    .029986    .228931    .414491   1.104444    .012207    .008304    859.528   17.19056
                          1.0        1.0        0.0        0.0        0.0
  10500     .0105  159.692747 -1316.0326 1156.33987 159.692747 -1316.0326 1156.33987 -423384.07 153621.047 269763.028        0.0
                          0.0        0.0  167.57602  -1572.113 1404.53699 -423383.18 153618.258 269764.922 1739.68903   -2976.65
                   1236.96097 1475.72536 -2472.3725 996.647122 -577005.12 -116141.98 693147.103 -.40528083  .04204989 .363230945
                   -3.3126898 1.27716399 2.03552595        0.0   466.7446    .706323    .699495   6.415017   6.353003    .110105
                         380.    .050184    .029986    .228931    .414491   1.104444    .012207    .008304    859.528   17.19056
                          1.0        1.0        0.0        0.0        0.0
  11000      .011  381.025119 -1389.8447 1008.81961 381.025119 -1389.8447 1008.81961 -407681.86 89126.4174 318555.446        0.0
                          0.0        0.0 434.356467 -1664.4769 1230.12044 -407680.56  89123.572 318556.985 2098.83337 -2894.5973
                   795.763971 1770.86984 -2398.6643 627.794487 -496808.28 -229429.03 726237.309  -.3712829 -.02787786 .399160755
                   -3.2034118 .778402584 2.42500918        0.0   466.7446    .706323    .699495   6.415017   6.353003    .110105
                         380.    .050184    .029986    .228931    .414491   1.104444    .012207    .008304    859.528   17.19056
                          1.0        1.0        0.0        0.0        0.0
  11500     .0115  592.974992 -1429.4341 836.459074 592.974992 -1429.4341 836.459074 -381941.17 22437.1981 359503.971        0.0
                          0.0        0.0 690.441529 -1715.8558 1025.41429 -381939.48 22434.3679 359505.117 2406.29735 -2741.2701
                   334.972766 2022.40906 -2265.8931 243.484081 -404378.37 -337066.77  741445.14 -.32814209 -.09711949 .425261576
                   -3.0152551 .260474406 2.75478076        0.0   466.7446    .706323    .699495   6.415017   6.353003    .110105
                         380.    .050184    .029986    .228931    .414491   1.104444    .012207    .008304    859.528   17.19056
                          1.0        1.0        0.0        0.0        0.0
  12000      .012  790.324592 -1433.8263 643.501742 790.324592 -1433.8263 643.501742 -346795.82 -44804.498 391600.317        0.0
                          0.0        0.0  929.52568 -1724.9847 795.459006  -346793.8 -44807.245  391601.04 2654.51037 -2520.4437
                   -134.06667 2224.15093 -2077.3281 -146.82285 -301991.32 -436404.81 738396.136 -.27692254 -.16396911  .44089165
                   -2.7528528 -.26386751 3.01672045        0.0   466.7446    .706323    .699495   6.415017   6.353003    .110105
                         380.    .050184    .029986    .228931    .414491   1.104444    .012207    .008304    859.528   17.19056
                          1.0        1.0        0.0        0.0        0.0
  12500     .0125  968.213465 -1402.9129 434.699426 968.213465 -1402.9129 434.699426 -303111.21 -110942.96 414054.163        0.0
                          0.0        0.0  1145.7218 -1691.6387 545.916892 -303108.89 -110945.55 414054.446  2837.3605 -2237.5556
                   -599.80491 2371.12636 -1837.6123 -533.51404 -192168.25 -524997.12 717165.369 -.21888372 -.22678153 .445665252
                   -2.4226662 -.78171236 3.20437847        0.0   466.7446    .706323    .699495   6.415017   6.353003    .110105
                         380.    .050184    .029986    .228931    .414491   1.104444    .012207    .008304    859.528   17.19056
                          1.0        1.0        0.0        0.0        0.0
  13000      .013  1122.26167 -1337.4551 215.193394 1122.26167 -1337.4551 215.193394 -251962.99 -174349.64 426312.621        0.0
                          0.0        0.0 1333.70645 -1616.6389 282.932499 -251960.44 -174352.02 426312.457  2950.3454 -1899.5714
                   -1050.7739 2459.71673 -1552.6485 -907.06827  -77613.35 -600662.26 678275.606 -.15545523 -.28400985 .439465078
                   -2.0328254 -1.2803087 3.31313405        0.0   466.7446    .706323    .699495   6.415017   6.353003    .110105
                         380.    .050184    .029986    .228931    .414491   1.104444    .012207    .008304    859.528   17.19056
                          1.0        1.0        0.0        0.0        0.0
  13500     .0135  1248.67606 -1239.0647 -9.6114037 1248.67606 -1239.0647 -9.6114037  -194610.6 -233463.25 428073.847        0.0
                          0.0        0.0 1488.85089 -1501.8322 12.9813477 -194607.89 -233465.35  428073.24 2990.68312 -1514.8136
                   -1475.8695 2487.74072 -1229.4533 -1258.2875 38852.6441 -661537.09 622684.449 -.08819884 -.33424494 .422443783
                   -1.5929299 -1.7473793 3.34030927        0.0   466.7446    .706323    .699495   6.415017   6.353003    .110105
                         380.    .050184    .029986    .228931    .414491   1.104444    .012207    .008304    859.528   17.19056
                          1.0        1.0        0.0        0.0        0.0
  14000      .014  1344.34391 -1110.1644 -234.17955 1344.34391 -1110.1644 -234.17955 -132466.26 -286828.22 419294.475        0.0
                          0.0        0.0 1607.33474 -1350.0453  -257.2894 -132463.44   -286830.  419293.44 2957.38007 -1092.7559
                   -1864.6241 2454.50826 -875.98481 -1578.5235 154361.958 -706122.69 551760.734 -.01877076 -.37624978 .395020544
                    -1.113811 -2.1714241 3.28523502        0.0   466.7446    .706323    .699495   6.415017   6.353003    .110105
                         380.    .050184    .029986    .228931    .414491   1.104444    .012207    .008304    859.528   17.19056
                          1.0        1.0        0.0        0.0        0.0
  14500     .0145  1406.90954 -953.92813 -452.98141 1406.90954 -953.92813 -452.98141 -67060.157 -333130.52 400190.681        0.0
                          0.0        0.0 1686.24072 -1165.0159 -521.22485 -67057.308 -333131.94 400189.244 2851.25658 -643.79102
                   -2207.4656 2360.83767 -500.94673 -1859.8909 266070.368 -733321.21 467250.838 .051119517 -.40899011 .357870589
                   -.60726634 -2.5420009 3.14926734        0.0   466.7446    .706323    .699495   6.415017   6.353003    .110105
                         380.    .050184    .029986    .228931    .414491   1.104444    .012207    .008304    859.528   17.19056
                          1.0        1.0        0.0        0.0        0.0
  % % % % % %   Suspended simulation;  plot data space exhausted;  SPY SPACE is required.   LIMBUF =  840000.
  % % % % % %   Suspended simulation;  plot data space exhausted;  SPY SPACE is required.   LIMBUF =  840000.
  +++  Time-sharing disabled.   Send  user-keyed interrupt to silence alarm.
   Current values.  INDBUF  INDBEG  LIMBUF  MFLUSH  NUMDCD  KCARD1  KCARD2
                    839994      50  840000    1000     230       1     231
Plot timespan now in memory (in sec) = 0.00000000E+00   1.49990000E-02
   ++++  Begin plot-data copy from memory to disk.   MFLUSH, INDBUF, N4, Tbeg,  Tend = 1001  839994       1  -1.00000E+00
1.00000E+19
  15000      .015  1434.83461 -774.20417 -660.63044 1434.83461 -774.20417 -660.63044 -2.8088403 -371230.05 371232.863        0.0
                          0.0        0.0  1723.6261 -951.29998 -772.32611 -.61533E-6 -371231.06  371231.06 2674.92608 -178.97387
                   -2495.9522 2209.03878 -113.57373  -2095.465 371227.246 -742462.92 371235.672 .119750658 -.43165953 .311908874
                   -.08576887 -2.8499853 2.93575427        0.0   466.7446    .706323    .699495   6.415017   6.353003    .110105
                         380.    .050184    .029986    .228931    .414491   1.104444    .012207    .008304    859.528   17.19056
                          1.0        1.0        0.0        0.0        0.0
  15500     .0155  1427.42468 -575.41438  -852.0103 1427.42468 -575.41438  -852.0103 67054.6036 -400188.67 333134.063        0.0
                          0.0        0.0 1718.56965  -714.1597   -1004.41 67057.3081 -400189.24 333131.936 2432.72936 290.250247
                   -2722.9796 2002.83906 276.595923  -2279.435  467243.27 -733322.73 266079.459 .185434156 -.44370058 .258266423
                   .437840324 -3.0877937 2.64995321        0.0   466.7446    .706323    .699495   6.415017   6.353003    .110105
                         380.    .050184    .029986    .228931    .414491   1.104444    .012207    .008304    859.528   17.19056
                          1.0        1.0        0.0        0.0        0.0
  16000      .016  1384.86946 -362.45731 -1022.4122 1384.86946 -362.45731 -1022.4122 132460.911 -419293.31 286832.395        0.0
                          0.0        0.0 1671.19655 -459.43456  -1211.762 132463.443 -419293.44 286829.997 2130.63112 752.327431
                   -2882.9585 1747.32677 659.954844 -2407.2816 551754.217  -706125.7 154371.483  .24655081 -.44481582 .198265014
                   .950668709 -3.2495703 2.29890149        0.0   466.7446    .706323    .699495   6.415017   6.353003    .110105
                         380.    .050184    .029986    .228931    .414491   1.104444    .012207    .008304    859.528   17.19056
                          1.0        1.0        0.0        0.0        0.0
  16500     .0165    1308.214 -140.57526 -1167.6387   1308.214 -140.57526 -1167.6387 194605.592 -428073.55 233467.961        0.0
                          0.0        0.0 1582.67303 -193.39661 -1389.2764 194607.888 -428073.24 233465.353 1776.06965 1195.87981
                   -2971.9495 1448.78927 1027.06347 -2475.8527 622679.145 -661541.51 38862.3695 .301596816 -.43497835 .133381536
                   1.44008843 -3.3313316 1.89124326        0.0   466.7446    .706323    .699495   6.415017   6.353003    .110105
                         380.    .050184    .029986    .228931    .414491   1.104444    .012207    .008304    859.528   17.19056
                          1.0        1.0        0.0        0.0        0.0
  17000      .017  1199.34598 84.7681877 -1284.1142 1199.34598 84.7681877 -1284.1142 251958.437 -426313.21 174354.772        0.0
                          0.0        0.0 1455.17941 77.4030992 -1532.5825 251960.441 -426312.46 174352.016 1377.77631 1609.98561
                   -2987.7619 1114.57779 1368.88235 -2483.4601 678271.646 -600667.98 -77603.666 .349216504 -.41443027 .065213764
                   1.89404837 -3.3310646  1.4370162        0.0   466.7446    .706323    .699495   6.415017   6.353003    .110105
                         380.    .050184    .029986    .228931    .414491   1.104444    .012207    .008304    859.528   17.19056
                          1.0        1.0        0.0        0.0        0.0
  17500     .0175  1060.94598 308.024437 -1368.9704 1060.94598 308.024437 -1368.9704 303107.229 -414055.62 110948.389        0.0
                          0.0        0.0 1291.85334 346.297481 -1638.1508 303108.891 -414054.45 110945.554 945.555855  1984.4483
                   -2930.0042 752.921545 1676.99486 -2429.9164 717162.847 -525004.01 -192158.84 .388237325 -.38367754 -.00455979
                    2.3013704 -3.2487756 .947405216        0.0   466.7446    .706323    .699495   6.415017   6.353003    .110105
                         380.    .050184    .029986    .228931    .414491   1.104444    .012207    .008304    859.528   17.19056
                          1.0        1.0        0.0        0.0        0.0
  18000      .018  896.422024  523.69607 -1420.1181 896.422024  523.69607 -1420.1181 346792.515  -391602.6 44810.0886        0.0
                          0.0        0.0  1096.7181  606.66458 -1703.3827 346793.795 -391601.04 44807.2448 490.053523 2310.04726
                   -2800.1008 372.725954 1943.81416 -2316.5401 738395.119 -436412.69 -301982.43 .417698447 -.34347739 -.07422106
                   2.65202531 -3.0864911 .434465882        0.0   466.7446    .706323    .699495   6.415017   6.353003    .110105
                         380.    .050184    .029986    .228931    .414491   1.104444    .012207    .008304    859.528   17.19056
                          1.0        1.0        0.0        0.0        0.0
  18500     .0185  709.825182 726.472564 -1436.2977 709.825182 726.472564 -1436.2977 381938.619 -359507.03 -22431.585        0.0
                          0.0        0.0 874.578034 852.093576 -1726.6716 381939.485 -359505.12 -22434.368 22.4844584 2578.76519
                   -2601.2496 -16.647381 2162.77031 -2146.1229 741445.653 -337075.45  -404370.2 .436874436 -.29481968 -.14205476
                   2.93737846 -2.8482068  -.0891715        0.0   466.7446    .706323    .699495   6.415017   6.353003    .110105
                         380.    .050184    .029986    .228931    .414491   1.104444    .012207    .008304    859.528   17.19056
                          1.0        1.0        0.0        0.0        0.0
  19000      .019  505.749959 911.360944 -1417.1109 505.749959 911.360944 -1417.1109 407680.128 -318559.21 -89120.919        0.0
                          0.0        0.0 630.902947 1076.54119 -1707.4441 407680.557 -318556.98 -89123.572 -445.63824 2783.98533
                   -2338.3471 -405.61098 2328.47185 -1922.8609 726239.338 -229438.29 -496801.05 .445292775 -.23890235 -.20639042
                   3.15040351 -2.5397903 -.61061311        0.0   466.7446    .706323    .699495   6.415017   6.353003    .110105
                         380.    .050184    .029986    .228931    .414491   1.104444    .012207    .008304    859.528   17.19056
                          1.0        1.0        0.0        0.0        0.0
  19500     .0195  289.221675 1073.80853 -1363.0302 289.221675 1073.80853 -1363.0302 423383.196  -269767.4  -153615.8        0.0
                          0.0        0.0 371.692944  1274.4808 -1646.1737  423383.18 -269764.92 -153618.26 -902.78786 2920.65455
                   -2017.8667 -784.58686 2436.83874 -1652.2519 693150.593  -116151.6 -576998.99 .442747172 -.17710279 -.26564439
                   3.28585523 -2.1688357 -1.1170195        0.0   466.7446    .706323    .699495   6.415017   6.353003    .110105
                         380.    .050184    .029986    .228931    .414491   1.104444    .012207    .008304    859.528   17.19056
                          1.0        1.0        0.0        0.0        0.0
  20000       .02   65.571813 1209.81537 -1275.3872  65.571813 1209.81537 -1275.3872 428661.165 -214333.02 -214328.15        0.0
                          0.0        0.0 103.330634 1441.03846 -1544.3691 428660.705 -214330.35 -214330.35 -1337.7078 2985.40755
                   -1647.6997 -1144.2436 2485.20255  -1340.959 642994.183 -4.8689767 -642989.31 .429299346  -.1109422 -.31835715
                   3.34039831 -1.7444773  -1.595921        0.0   466.7446    .706323    .699495   6.415017   6.353003    .110105
                         380.    .050184    .029986    .228931    .414491   1.104444    .012207    .008304    859.528   17.19056
                          1.0        1.0        0.0        0.0        0.0
  20500     .0205   -159.6927 1316.03256 -1156.3399  -159.6927 1316.03256 -1156.3399 423384.075 -153621.05 -269763.03        0.0
                          0.0        0.0 -167.57603 1572.11297 -1404.5369  423383.18 -153618.26 -269764.92  -1739.689  2976.6499
                   -1236.9609 -1475.7253 2472.37242 -996.64715 577005.122  116141.98  -693147.1 .405280821 -.04204988 -.36323094
                    3.3126897  -1.277164 -2.0355258        0.0   466.7446    .706323    .699495   6.415017   6.353003    .110105
                         380.    .050184    .029986    .228931    .414491   1.104444    .012207    .008304    859.528   17.19056
                          1.0        1.0        0.0        0.0        0.0
  21000      .021  -381.02505 1389.84465 -1008.8196 -381.02505 1389.84465 -1008.8196 407681.863 -89126.417 -318555.45        0.0
                          0.0        0.0 -434.35613 1664.47669 -1230.1206 407680.557 -89123.572 -318556.98 -2098.8328 2894.59725
                   -795.76443 -1770.8697 2398.66426 -627.79456 496808.281 229429.029 -726237.31 .371282865 .027877875 -.39916074
                   3.20341164 -.77840264 -2.4250091        0.0   466.7446    .706323    .699495   6.415017   6.353003    .110105
[...]
                         380.    .050184    .029986    .228931    .414491   1.104444    .012207    .008304    859.528   17.19056
                          1.0        1.0        0.0        0.0        0.0
 113000      .113  -248768.65 -177845.92 426614.568 -248768.65 -177845.92 426614.568 -248768.65 -177845.92 426614.568        0.0
                          0.0        0.0 -352102.32 -154747.63 506849.947 -251960.44 -174352.02 426312.457 -197354.69 -661597.57
                   858952.268  -70922.73 -604460.49 675383.217 -70922.728 -604460.49 675383.216 371.927634 -377.94264 6.01500167
                   -585.54264 778.713849 -193.17121        0.0   466.7446    .706323    .699495   6.415017   6.353003    .110105
                         380.    .050184    .029986    .228931    .414491   1.104444    .012207    .008304    859.528   17.19056
                          1.0        1.0        0.0        0.0        0.0
 113500     .1135  -195391.47 -232333.76 427725.232 -195391.47 -232333.76 427725.232 -195391.47 -232333.76 427725.232        0.0
                          0.0        0.0 -305808.74 -204427.57 510236.309 -194607.89 -233465.35  428073.24 -101381.17 -714663.88
                   816045.048 36942.2826 -660058.99 623116.706 36942.2841 -660058.99 623116.706 357.492937 -365.09095 7.59800901
                   -665.22702  701.59924 -36.372194        0.0   466.7446    .706323    .699495   6.415017   6.353003    .110105
                         380.    .050184    .029986    .228931    .414491   1.104444    .012207    .008304    859.528   17.19056
                          1.0        1.0        0.0        0.0        0.0
 114000      .114   -132078.9 -296692.93 428771.828  -132078.9 -296692.93 428771.828  -132078.9 -296692.93 428771.828        0.0
                          0.0        0.0 -87381.464 -461150.47 548531.933 -132463.44   -286830.  419293.44 373769.004 -.100968E7
                   635913.397 164614.026 -725464.76  560850.73 164614.027 -725464.76 560850.729 333.511165 -327.70536 -5.8058059
                   -722.66963 603.797846  118.87178        0.0   466.7446    .706323    .699495   6.415017   6.353003    .110105
                         380.    .050184    .029986    .228931    .414491   1.104444    .012207    .008304    859.528   17.19056
                          1.0        1.0        0.0        0.0        0.0
 114500     .1145   -60601.88 -343748.22 404350.101  -60601.88 -343748.22 404350.101  -60601.88 -343748.22 404350.101        0.0
                          0.0        0.0 -5925.9821 -516769.69 522695.668 -67057.308 -333131.94 400189.244 510843.704 -.103947E7
                    528621.65 283146.341 -748098.32 464951.982 283146.342 -748098.32 464951.981 359.080694 -349.67689 -9.4037996
                   -757.33502  488.94866 268.386341        0.0   466.7446    .706323    .699495   6.415017   6.353003    .110105
                         380.    .050184    .029986    .228931    .414491   1.104444    .012207    .008304    859.528   17.19056
                          1.0        1.0        0.0        0.0        0.0
 115000      .115  1374.86427 -372368.44 370993.571 1374.86427 -372368.44 370993.571 1374.86463 -372368.44 370993.571        0.0
                          0.0        0.0 69353.6976 -549087.55 479733.857 .127058E-4 -371231.06  371231.06 618441.252 -.102882E7
                    410380.16   373743.3 -743362.01 369618.707   373743.3 -743362.01 369618.707 183.523868 -175.37031 -8.1535542
                   -764.69553 356.123028 408.572497        0.0   466.7446    .706323    .699495   6.415017   6.353003    .110105
                         380.    .050184    .029986    .228931    .414491   1.104444    .012207    .008304    859.528   17.19056
                          1.0        1.0        0.0        0.0        0.0
 115500     .1155  95642.4648 -434889.97  339247.51 95642.4648 -434889.97  339247.51 95642.4652 -434889.97  339247.51        0.0
                          0.0        0.0 154638.492 -584265.07 429626.579 67057.3081 -400189.24 333131.936 738903.563 -.101389E7
                   274988.087 530532.439 -774137.48 243605.045  530532.44 -774137.48 243605.045 193.753763 -178.13963 -15.614129
                   -750.25574 214.071549 536.184249        0.0   466.7446    .706323    .699495   6.415017   6.353003    .110105
                         380.    .050184    .029986    .228931    .414491   1.104444    .012207    .008304    859.528   17.19056
                          1.0        1.0        0.0        0.0        0.0
 116000      .116  140920.262 -427269.41 286349.148 140920.262 -427269.41 286349.148 140920.261 -427269.41 286349.148        0.0
                          0.0        0.0 245304.265 -609629.45 364325.183 132463.443 -419293.44 286829.997 854933.713 -973954.63
                   119020.918 568189.672 -713618.56 145428.886 568189.671 -713618.56 145428.886 -114.18214 232.287158 -118.10501
                   -706.86684 57.4812128 649.385624        0.0   466.7446    .706323    .699495   6.415017   6.353003    .110105
                         380.    .050184    .029986    .228931    .414491   1.104444    .012207    .008304    859.528   17.19056
                          1.0        1.0        0.0        0.0        0.0
 116500     .1165  189556.591 -421455.65 231899.063 189556.591 -421455.65 231899.063  189556.59 -421455.65 231899.063        0.0
                          0.0        0.0 269953.045 -563841.87 293888.828 194607.888 -428073.24 233465.353 833794.918  -857730.7
                   23935.7827 611012.244 -653354.72 42342.4729 611012.244 -653354.72  42342.473 -121.26783 211.151199 -89.883367
                    -644.7067 -97.379123 742.085824        0.0   466.7446    .706323    .699495   6.415017   6.353003    .110105
                         380.    .050184    .029986    .228931    .414491   1.104444    .012207    .008304    859.528   17.19056
                          1.0        1.0        0.0        0.0        0.0
 117000      .117   247518.33 -420700.77 173182.443  247518.33 -420700.77 173182.443  247518.33 -420700.77 173182.442        0.0
                          0.0        0.0 330562.716 -549425.41 218862.694 251960.441 -426312.46 174352.016 879988.125  -768288.1
                   -111700.02 668219.103 -593883.22 -74335.888 668219.102 -593883.21 -74335.888 -61.736448 124.949366 -63.212918
                   -561.88236 -252.06248 813.944865        0.0   466.7446    .706323    .699495   6.415017   6.353003    .110105
                         380.    .050184    .029986    .228931    .414491   1.104444    .012207    .008304    859.528   17.19056
                          1.0        1.0        0.0        0.0        0.0
 117500     .1175  300743.289 -410800.12 110056.829 300743.289 -410800.12 110056.829 300743.289 -410800.12 110056.829        0.0
                          0.0        0.0 354731.717 -483698.74 128967.024 303108.891 -414054.45 110945.554 838430.459 -612665.77
                   -225764.69 711543.407 -520856.95 -190686.46 711543.406 -520856.95 -190686.46 -75.219506 120.619917 -45.400411
                   -458.40792  -404.8929  863.30085        0.0   466.7446    .706323    .699495   6.415017   6.353003    .110105
                         380.    .050184    .029986    .228931    .414491   1.104444    .012207    .008304    859.528   17.19056
                          1.0        1.0        0.0        0.0        0.0
 118000      .118  351332.133 -401460.49 50128.3597 351332.133 -401460.49 50128.3597 351332.133 -401460.49 50128.3596        0.0
                          0.0        0.0 335150.348  -358242.5 23092.1549 346793.795 -391601.04 44807.2447 693392.852 -381334.66
                   -312058.19 752792.626 -451588.85 -301203.77 752792.626 -451588.85 -301203.77 17.7706452 13.0426223 -30.813268
                   -339.49829 -549.35957 888.857858        0.0   466.7446    .706323    .699495   6.415017   6.353003    .110105
                         380.    .050184    .029986    .228931    .414491   1.104444    .012207    .008304    859.528   17.19056
                          1.0        1.0        0.0        0.0        0.0
 118500     .1185  398242.388 -376638.11 -21604.282 398242.388 -376638.11 -21604.282 398242.388 -376638.11 -21604.282        0.0
                          0.0        0.0 384972.549 -331176.03 -53796.521 381939.485 -359505.12 -22434.368 716148.576 -277379.51
                   -438769.07 774880.493 -355033.82 -419846.67 774880.493 -355033.82 -419846.67 67.7628288 -56.394187 -11.368642
                   -205.92701 -683.94345  889.87044        0.0   466.7446    .706323    .699495   6.415017   6.353003    .110105
                         380.    .050184    .029986    .228931    .414491   1.104444    .012207    .008304    859.528   17.19056
                          1.0        1.0        0.0        0.0        0.0
 119000      .119  431951.212  -345120.5 -86830.709 431951.212  -345120.5 -86830.709 431951.212  -345120.5 -86830.709        0.0
                          0.0        0.0 424101.841 -297625.97 -126475.87 407680.557 -318556.98 -89123.572 721727.808 -171150.09
                   -550577.71 777071.715 -258289.79 -518781.92 777071.715 -258289.79 -518781.92 9.20728378 -9.8041726 .596888515
                    -60.04879 -806.44989 866.498683        0.0   466.7446    .706323    .699495   6.415017   6.353003    .110105
                         380.    .050184    .029986    .228931    .414491   1.104444    .012207    .008304    859.528   17.19056
                          1.0        1.0        0.0        0.0        0.0
 119500     .1195  403183.498 -243797.68 -159385.82 403183.498 -243797.68 -159385.82 403183.499 -243797.68 -159385.82        0.0
                          0.0        0.0 431390.393 -231873.31 -199517.08  423383.18 -269764.92 -153618.26 663263.705 -32356.231
                   -630907.47 646981.181 -84411.867 -562569.31 646981.182 -84411.868 -562569.31 314.296464  -375.4906 61.1941337
                   87.5722613   -906.066  818.49371        0.0   466.7446    .706323    .699495   6.415017   6.353003    .110105
                         380.    .050184    .029986    .228931    .414491   1.104444    .012207    .008304    859.528   17.19056
                          1.0        1.0        0.0        0.0        0.0
  % % % % % %   Suspended simulation;  plot data space exhausted;  SPY SPACE is required.   LIMBUF =  840000.
  % % % % % %   Suspended simulation;  plot data space exhausted;  SPY SPACE is required.   LIMBUF =  840000.
  +++  Time-sharing disabled.   Send  user-keyed interrupt to silence alarm.
   Current values.  INDBUF  INDBEG  LIMBUF  MFLUSH  NUMDCD  KCARD1  KCARD2
                    839994      50  840000    1007     230       1     231
Plot timespan now in memory (in sec) = 1.04985997E-01   1.19985000E-01
   ++++  Begin plot-data copy from memory to disk.   MFLUSH, INDBUF, N4, Tbeg,  Tend = 1008  839994       1  -1.00000E+00
1.00000E+19
 120000       .12  418420.494 -206830.93 -211589.56 418420.494 -206830.93 -211589.56 418420.495 -206830.93 -211589.56        0.0
                          0.0        0.0 417748.847 -159402.91 -258345.94 428660.705 -214330.35 -214330.35 577151.755  98943.033
                   -676094.79 625251.424 4758.63496 -630010.06 625251.426 4758.63353 -630010.06 486.681942 -599.53685 112.854904
                   240.433535 -988.29011 747.856549        0.0   466.7446    .706323    .699495   6.415017   6.353003    .110105
                         380.    .050184    .029986    .228931    .414491   1.104444    .012207    .008304    859.528   17.19056
                          1.0        1.0        0.0        0.0        0.0

Extrema of output variables follow.   Order and column positioning are the same as for the preceding time-step loop output.
Variable maxima :   545119.82 521232.705 445324.923  545119.82 521232.705 445324.923 545119.821 521232.705 498055.487        0.0
                          0.0        0.0 711695.961 715834.506  550172.36 428660.705 428660.703 428660.703 .1267784E7 .1149393E7
                   975843.671  821822.96 871206.079 795228.745 821822.962  871206.08 795228.743 911.345621 609.424613 762.670504
                   1324.36182 867.478749 892.455181        0.0   466.7446    .706323    .699495   6.415017   6.353003    .110105
                         380.    .050184    .029986    .228931    .414491   1.104444    .012207    .008304    859.528   17.19056
                          1.0        1.0        0.0        0.0        0.0
Times of maxima :     .061503    .065336    .072775    .061503    .065336    .072775    .061503    .065336    .053961        0.0
                          0.0        0.0    .059689    .067164    .113988        0.0    .006667    .113333      .0597    .064194
                      .112218     .07689    .065333    .091555     .07689    .065333    .091555    .065596    .069586    .053931
                      .064909    .111802    .118251        0.0        0.0        0.0        0.0        0.0        0.0        0.0
                          0.0        0.0        0.0        0.0        0.0        0.0        0.0        0.0        0.0        0.0
                          0.0        0.0        0.0        0.0        0.0
Variable minima :  -493249.69 -509278.56 -438625.51 -493249.69 -509278.56 -438625.51 -493249.69 -509278.56 -438625.51        0.0
                          0.0        0.0 -669029.98 -684155.14 -591446.69 -428660.71  -428660.7  -428660.7 -.124797E7 -.115898E7
                   -.101606E7 -880975.88 -774394.75 -905462.45 -880975.88 -774394.75 -905462.45 -622.24792 -1049.3838 -471.78354
                   -766.71783 -1185.0763   -1140.83        0.0   466.7446    .706323    .699495   6.415017   6.353003    .110105
                         380.    .050184    .029986    .228931    .414491   1.104444    .012207    .008304    859.528   17.19056
                          1.0        1.0        0.0        0.0        0.0
Times of minima :     .069029    .076886    .083937    .069029    .076886    .083937    .069029    .076886    .083937        0.0
                          0.0        0.0     .09022    .075946     .06375        .01    .016667    .103333    .067169    .075364
                      .063361    .069025    .115482    .061506    .069025    .115482    .061506    .051031    .057847    .069596
                      .114831    .061686    .068252        0.0        0.0        0.0        0.0        0.0        0.0        0.0
                          0.0        0.0        0.0        0.0        0.0        0.0        0.0        0.0        0.0        0.0
                          0.0        0.0        0.0        0.0        0.0

Blank card terminating all plot cards.            |BLANK PLOT

Memory storage figures for the preceding, now-completed data case.  -------------------------------  Present   Program
A value of  "-9999"  indicates that no figure is available.         28-Feb-22  21:09:37              figure     limit  (name)
     Size List 1.   Number of electric network nodes.                                                   37      6000  (LBUS)
     Size List 2.   Number of electric network branches.                                                39     10000  (LBRNCH)
     Size List 3.   Number of data values in R, L, C tables.                                            45    192000  (LDATA)
     Size List 4.   Number of electric network sources.                                                  3       900  (LEXCT)
     Size List 5.   Storage for [Y] and triangularized [Y].   No. times =    3     Factors =    66     189    420000  (LYMAT)
     Size List 6.   Number of entries in switch table.                  No. flops = 18                  21      1200  (LSWTCH)
     Size List 7.   Number of distinct ALPHANUMERIC data names plus program SPY variables.              25     15000  (LSIZE7)
     Size List 8.   History points of distributed lines.                                              6273    120000  (LPAST)
     Size List 9.   Number of nonlinear elements.                                                        0      2250  (LNONL)
     Size List 10.  Points of nonlinear characteristics.                                                 0      3800  (LCHAR)
     Size List 11.  Number of Type-59 S.M. outputs.                                                      0       720  (LSMOUT)
     Size List 12.  Total number of EMTP output variables.                                              55      2000  (LSIZ12)
     Size List 13.  Working space for batch/SPY plotting.                                            -9999     72800  (LSIZ13)
     Size List 14.  S.M./U.M. connections to TACS.                                                   -9999       510  (LBSTAC)
     Size List 15.  Character storage in bytes for MODELS.                                            3297     90000  (LCTACS)
     Size List 16.  Total number of Type-59 S.M. masses.                                                 0       800  (LIMASS)
     Size List 17.  Number of Type-59 Synchronous machines.                                              0        90  (LSYN)
     Size List 18.  Branch and switch power/energy outputs.                                              0       254  (MAXPE)
     Size List 19.  Total floating-point TACS table space.                                              23    120000  (LTACST)
     Size List 20.  Non-copied recursive convolution data.                                               0    100000  (LFSEM)
     Size List 21.  Total modal/phase [T] matrix storage.                                                9      3000  (LFD)
     Size List 22.  Total recursive convolution history.                                                 0     15000  (LHIST)
     Size List 23.  Giant vectors for renumbering, phasors;  also extrema accumulation.                  93    192000  (LSIZ23)
     Size List 24.  Peak phases of compensation for data.                                                0       120  (LCOMP)
     Size List 25.  Total table space for all U.M usage.                                             -9999     45000  (LSPCUM)
     Size List 26.  Square of max number of coupled phases.                                              9    260000  (LSIZ26)
     Size List 27.  Maximum number of MODELS top variables.                                             44       600  (LSIZ27)
     Size List 28.  MODELS.  Total work space is divided into INTEGER and REAL.  1st, REAL:           1780    210000  (LRTACS)
                             Second  and last,  statistics for INTEGER work space.                    6838         0  (LITACS)
     Size List 29.  RAM disk used by "TAPSAV" table saving (limit is "LABCOM" size LTLABL).          -9999       600  (LSIZ29)
     Size List 30.  Taku Noda frequency-dependent circuits.                                              0        19  (LSIZ30)
Timing figures characterizing central processor (CP) solution speed.  ----------------------------   CP sec  Wait sec  Real sec
     Data input time (through blank card ending branches) ....                                       0.016     0.000     0.016
     Node renumbering and phasor solution  ....                                                      0.016     0.000     0.016
     After phasor solution, but before time-step loop  ....                                          0.016     0.000     0.016
     Integration of equations (time-step loop)  ....                                                 0.906     0.000     0.906
     Plotting or STATISTICS termination overlays ....                                                0.000     0.000     0.000
                                                                                                    ---------------------------
                                                                                          Totals      0.953     0.000     0.953

