   ---   236   cards of disk file read into card cache cells  1   onward.
 Comment card is ignored.      |C   LBUS  LBRNCH   LDATA   LEXCT   LYMAT  LSWTCH
 Limit CIDEAL cards =   200    |CARDS        200 { Limit of CIDEAL will be 2 mor
 1st card (Lists  1-10).       |    6000   10000  192000     900  420000    120
 Comment card is ignored.      |C LSMOUT  LSIZ12  LSIZ13  LBSTAC  LCTACS  LIMASS
 2nd card (Lists 11-20).       |     720    2000   72800     510   90000     80
 Comment card is ignored.      |C    LFD   LHIST  LSIZ23   NCOMP  LSPCUM  LSIZ26
 3rd card (Lists 21-30).       |    3000   15000  192000     120   45000  26000
 4th card (Lists 31-32).       |     200     300     { Optional card for Lists
 Comment card is ignored.      |C  LWORK  LMARTI
 Supplemental offsets.         |  840000     742
 <===> Done with  "/"-card sorting by data class.    Remember that the source file appears different from interpreted input data.
Alternative Transients Program (ATP),  GNU Linux or DOS.  All rights reserved by Can/Am user group of Portland, Oregon, USA.
 Date (dd-mth-yy) and time of day (hh.mm.ss) = 28-Feb-22  19:03:49   Name of disk plot file is  atp\bdfinalisima\energizacion65.pl4
Consult the 860-page ATP Rule Book of the Can/Am EMTP User Group in Portland,  Oregon, USA.  Source code date is 12 August 2008.
Total size of LABCOM tables = 10913436 INTEGER words.  31 VARDIM  List Sizes follow:  6002  10K  192K  900  420K  1200  15K
  120K  2250  3800  720  2K  72800  510  90K  800  90  254  120K  100K  3K  15K  192K  120  45K  260K  600  210K  1100  60  200
--------------------------------------------------+--------------------------------------------------------------------------------
Descriptive interpretation of input data cards.   |  Input data card images are shown below, all 80 columns, character by character
                                                  0         1         2         3         4         5         6         7         8
                                                  012345678901234567890123456789012345678901234567890123456789012345678901234567890
--------------------------------------------------+--------------------------------------------------------------------------------
Comment card.   NUMDCD = 1.                       |C data:D:\ATP\BDFINALISIMA\ENERGIZACION65.ATP
Marker card preceding new EMTP data case.         |BEGIN NEW DATA CASE
Comment card.   NUMDCD = 3.                       |C --------------------------------------------------------
Comment card.   NUMDCD = 4.                       |C Generated by ATPDRAW  febrero, lunes 28, 2022
Comment card.   NUMDCD = 5.                       |C A Bonneville Power Administration program
Comment card.   NUMDCD = 6.                       |C by H. K. Høidalen at SEfAS/NTNU - NORWAY 1994-2016
Comment card.   NUMDCD = 7.                       |C --------------------------------------------------------
Comment card.   NUMDCD = 8.                       |C  dT  >< Tmax >< Xopt >< Copt ><Epsiln>
Misc. data.     1.000E-06   1.200E-01   5.000E+01 |   1.E-6     .12     50.
Misc. data.    500    1  0  1  1  0  0  0  0  0   |     500       1       0       1       1       0       0       0       0
  ///  Warning.  Nonzero XOPT or COPT differs from the power frequency of  6.00000000E+01  Hz.   Did the user really want this?
No TACS data,  but MODELS data begins (next).     |MODELS
      Another ordinary MODELS data card.          |OUTPUT
      Another ordinary MODELS data card.          |  AnVol
      Another ordinary MODELS data card.          |  LONG
      Another ordinary MODELS data card.          |  R0F
      Another ordinary MODELS data card.          |  R1F
      Another ordinary MODELS data card.          |  X0F
      Another ordinary MODELS data card.          |  X1F
      Another ordinary MODELS data card.          |  RDIVX
      Another ordinary MODELS data card.          |  RINSER
      Another ordinary MODELS data card.          |  CLOSE1
      Another ordinary MODELS data card.          |  RPpos
      Another ordinary MODELS data card.          |  RPcero
      Another ordinary MODELS data card.          |  LPpos
      Another ordinary MODELS data card.          |  LPcero
      Another ordinary MODELS data card.          |  CPpos
      Another ordinary MODELS data card.          |  CPcero
      Another ordinary MODELS data card.          |  Xp
      Another ordinary MODELS data card.          |  CR
      Another ordinary MODELS data card.          |  SIMET
      Another ordinary MODELS data card.          |  ENC1
      Another ordinary MODELS data card.          |  ENC2
      Another ordinary MODELS data card.          |  ENC1AS
      Another ordinary MODELS data card.          |  ENC2AS
      Another ordinary MODELS data card.          |MODEL DEFAULT
      Another ordinary MODELS data card.          |DATA AnVol,LONG,R0F,R1F,X0F,X1F,RDIVX,RINSER,CLOSE1,RPpos,RPcero,LPpos,LPcero
      Another ordinary MODELS data card.          |OUTPUT o1,o2,o3, o4, o5, o6, o7, o8, o9, o10, o11, o12, o13
      Another ordinary MODELS data card.          |VAR o1,o2,o3, o4, o5, o6, o7, o8, o9, o10, o11, o12, o13
      Another ordinary MODELS data card.          |INIT
      Another ordinary MODELS data card.          |  o1:=AnVol
      Another ordinary MODELS data card.          |  o2:=LONG
      Another ordinary MODELS data card.          |  o3:=R0F
      Another ordinary MODELS data card.          |  o4:=R1F
      Another ordinary MODELS data card.          |  o5:=X0F
      Another ordinary MODELS data card.          |  O6:=X1F
      Another ordinary MODELS data card.          |  o7:=RDIVX
      Another ordinary MODELS data card.          |  o8:=RINSER
      Another ordinary MODELS data card.          |  o9:=CLOSE1
      Another ordinary MODELS data card.          |  o10:=RPpos
      Another ordinary MODELS data card.          |  o11:=RPcero
      Another ordinary MODELS data card.          |  o12:=LPpos
      Another ordinary MODELS data card.          |  o13:=LPcero
      Another ordinary MODELS data card.          |
      Another ordinary MODELS data card.          |ENDINIT
      Another ordinary MODELS data card.          |EXEC
      Another ordinary MODELS data card.          |ENDEXEC
      Another ordinary MODELS data card.          |ENDMODEL
      Another ordinary MODELS data card.          |MODEL DEFAULT1
      Another ordinary MODELS data card.          |DATA CPpos,CPcero,Xp,CR,SIMET,ENC1,ENC2,ENC1AS,ENC2AS
      Another ordinary MODELS data card.          |OUTPUT o1, o2, o3, o4, o5, o6, o7, o8, o9
      Another ordinary MODELS data card.          |VAR o1, o2, o3, o4, o5, o6, o7, o8, o9
      Another ordinary MODELS data card.          |INIT
      Another ordinary MODELS data card.          |  o1:=CPpos
      Another ordinary MODELS data card.          |  o2:=CPcero
      Another ordinary MODELS data card.          |  o3:=Xp
      Another ordinary MODELS data card.          |  o4:=CR
      Another ordinary MODELS data card.          |  o5:=SIMET
      Another ordinary MODELS data card.          |  o6:=ENC1
      Another ordinary MODELS data card.          |  o7:=ENC2
      Another ordinary MODELS data card.          |  o8:=ENC1AS
      Another ordinary MODELS data card.          |  o9:=ENC2AS
      Another ordinary MODELS data card.          |
      Another ordinary MODELS data card.          |ENDINIT
      Another ordinary MODELS data card.          |EXEC
      Another ordinary MODELS data card.          |ENDEXEC
      Another ordinary MODELS data card.          |ENDMODEL
      Another ordinary MODELS data card.          |USE DEFAULT AS DEFAULT
      Another ordinary MODELS data card.          |DATA
      Another ordinary MODELS data card.          |  AnVol:=      0.0
      Another ordinary MODELS data card.          |  LONG:= 40.13634
      Another ordinary MODELS data card.          |  R0F:= 2.346755
      Another ordinary MODELS data card.          |  R1F:= 2.963986
      Another ordinary MODELS data card.          |  X0F:= 9.270734
      Another ordinary MODELS data card.          |  X1F:= 11.70907
      Another ordinary MODELS data card.          |  RDIVX:= 0.253136
      Another ordinary MODELS data card.          |  RINSER:=     440.
      Another ordinary MODELS data card.          |  CLOSE1:= 0.048671
      Another ordinary MODELS data card.          |  RPpos:= 0.021758
      Another ordinary MODELS data card.          |  RPcero:= 0.355637
      Another ordinary MODELS data card.          |  LPpos:= 0.205256
      Another ordinary MODELS data card.          |  LPcero:= 1.324019
      Another ordinary MODELS data card.          |OUTPUT
      Another ordinary MODELS data card.          |  AnVol:=o1
      Another ordinary MODELS data card.          |  LONG:=o2
      Another ordinary MODELS data card.          |  R0F:=o3
      Another ordinary MODELS data card.          |  R1F:=o4
      Another ordinary MODELS data card.          |  X0F:=o5
      Another ordinary MODELS data card.          |  X1F:=o6
      Another ordinary MODELS data card.          |  RDIVX:=o7
      Another ordinary MODELS data card.          |  RINSER:=o8
      Another ordinary MODELS data card.          |  CLOSE1:=o9
      Another ordinary MODELS data card.          |  RPpos:=o10
      Another ordinary MODELS data card.          |  RPcero:=o11
      Another ordinary MODELS data card.          |  LPpos:=o12
      Another ordinary MODELS data card.          |  LPcero:=o13
      Another ordinary MODELS data card.          |ENDUSE
      Another ordinary MODELS data card.          |USE DEFAULT1 AS DEF
      Another ordinary MODELS data card.          |DATA
      Another ordinary MODELS data card.          |  CPpos:= 0.016903
      Another ordinary MODELS data card.          |  CPcero:= 0.006087
      Another ordinary MODELS data card.          |  Xp:= 7218.141
      Another ordinary MODELS data card.          |  CR:= 144.3628
      Another ordinary MODELS data card.          |  SIMET:=       1.
      Another ordinary MODELS data card.          |  ENC1:=      0.0
      Another ordinary MODELS data card.          |  ENC2:=       1.
      Another ordinary MODELS data card.          |  ENC1AS:=      0.0
      Another ordinary MODELS data card.          |  ENC2AS:=      0.0
      Another ordinary MODELS data card.          |OUTPUT
      Another ordinary MODELS data card.          |  CPpos:=o1
      Another ordinary MODELS data card.          |  CPcero:=o2
      Another ordinary MODELS data card.          |  Xp:=o3
      Another ordinary MODELS data card.          |  CR:=o4
      Another ordinary MODELS data card.          |  SIMET:=o5
      Another ordinary MODELS data card.          |  ENC1:=o6
      Another ordinary MODELS data card.          |  ENC2:=o7
      Another ordinary MODELS data card.          |  ENC1AS:=o8
      Another ordinary MODELS data card.          |  ENC2AS:=o9
      Another ordinary MODELS data card.          |ENDUSE
      Another ordinary MODELS data card.          |RECORD
      Another ordinary MODELS data card.          |  DEFAULT.o1 AS AnVOL
      Another ordinary MODELS data card.          |  DEFAULT.o2 AS LONG
      Another ordinary MODELS data card.          |  DEFAULT.o3 AS R0F
      Another ordinary MODELS data card.          |  DEFAULT.o4 AS R1F
      Another ordinary MODELS data card.          |  DEFAULT.o5 AS X0F
      Another ordinary MODELS data card.          |  DEFAULT.o6 AS X1F
      Another ordinary MODELS data card.          |  DEFAULT.o7 AS RDIVX
      Another ordinary MODELS data card.          |  DEFAULT.o8 AS RINSER
      Another ordinary MODELS data card.          |  DEFAULT.o9 AS CLOSE1
      Another ordinary MODELS data card.          |  DEFAULT.o10 AS RPpos
      Another ordinary MODELS data card.          |  DEFAULT.o11 AS RPcero
      Another ordinary MODELS data card.          |  DEFAULT.o12 AS LPpos
      Another ordinary MODELS data card.          |  DEFAULT.o13 AS LPcero
      Another ordinary MODELS data card.          |  DEF.o1 AS CPpos
      Another ordinary MODELS data card.          |  DEF.o2 AS CPcero
      Another ordinary MODELS data card.          |  DEF.o3 AS Xp
      Another ordinary MODELS data card.          |  DEF.o4 AS CR
      Another ordinary MODELS data card.          |  DEF.o5 AS SIMET
      Another ordinary MODELS data card.          |  DEF.o6 AS ENC1
      Another ordinary MODELS data card.          |  DEF.o7 AS ENC2
      Another ordinary MODELS data card.          |  DEF.o8 AS ENC1AS
      Another ordinary MODELS data card.          |  DEF.o9 AS ENC2AS
Termination of data for Laurent Dube`s MODELS.    |ENDMODELS
Comment card.   NUMDCD = 153.                     |C        1         2         3         4         5         6         7         8
Comment card.   NUMDCD = 154.                     |C 345678901234567890123456789012345678901234567890123456789012345678901234567890
Optional blank card follows last of MODELS data.  |BLANK MODELS
Comment card.   NUMDCD = 156.                     |C < n1 >< n2 ><ref1><ref2>< R  >< L  >< C  >
Comment card.   NUMDCD = 157.                     |C < n1 >< n2 ><ref1><ref2>< R  >< A  >< B  ><Leng><><>0
1st of coupled R-L.   2.34680E+00  2.95097E-02    |51IFUENASB1A              2.34689.2707343912
2nd coil. 2.964E+00 3.727E-02 0.000E+00 0.000E+00 |52IFUENBSB1B               2.96411.709074269
Zca, Zcc=-2.057E-01-2.587E-03 2.758E+00 3.468E-02 |53IFUENCSB1C
Series R-L-C.   1.000E+09  0.000E+00  0.000E+00   |  SB1A                      1.E9                                               0
Series R-L-C.   1.000E+09  0.000E+00  0.000E+00   |  SB1B                      1.E9                                               0
Series R-L-C.   1.000E+09  0.000E+00  0.000E+00   |  SB1C                      1.E9                                               0
Series R-L-C.   1.000E+09  0.000E+00  0.000E+00   |  RSNSHA                    1.E9                                               0
Series R-L-C.   1.000E+09  0.000E+00  0.000E+00   |  RSNSHB                    1.E9                                               0
Series R-L-C.   1.000E+09  0.000E+00  0.000E+00   |  RSNSHC                    1.E9                                               0
Series R-L-C.   7.218E+01  1.149E+01  0.000E+00   |  RSNNHA                  72.1813609.1                                         0
Series R-L-C.   7.218E+01  1.149E+01  0.000E+00   |  RSNNHB                  72.1813609.1                                         0
Series R-L-C.   7.218E+01  1.149E+01  0.000E+00   |  RSNNHC                  72.1813609.1                                         0
Series R-L-C.   1.000E+09  0.000E+00  0.000E+00   |  SE2A                      1.E9                                               0
Series R-L-C.   1.000E+09  0.000E+00  0.000E+00   |  SE2B                      1.E9                                               0
Series R-L-C.   1.000E+09  0.000E+00  0.000E+00   |  SE2C                      1.E9                                               0
Series R-L-C.   2.500E+02  0.000E+00  3.000E-10   |  X0001B                    250.       .0003                                   0
Series R-L-C.   2.500E+02  0.000E+00  3.000E-10   |  X0002B                    250.       .0003                                   0
Series R-L-C.   1.000E-06  0.000E+00  0.000E+00   |  X0001ALN1A               1.E-6                                               0
Series R-L-C.   1.000E-06  0.000E+00  0.000E+00   |  SB1A  X0002A             1.E-6                                               0
Series R-L-C.   1.000E-06  0.000E+00  0.000E+00   |  X0001BLN1B               1.E-6                                               0
Series R-L-C.   1.000E-06  0.000E+00  0.000E+00   |  SB1B  X0002B             1.E-6                                               0
Series R-L-C.   1.000E-06  0.000E+00  0.000E+00   |  X0001CLN1C               1.E-6                                               0
Series R-L-C.   1.000E-06  0.000E+00  0.000E+00   |  SB1C  X0002C             1.E-6                                               0
Series R-L-C.   4.400E+02  0.000E+00  0.000E+00   |  XX0005X0002A              440.                                               0
Series R-L-C.   4.400E+02  0.000E+00  0.000E+00   |  XX0003X0002B              440.                                               0
Series R-L-C.   4.400E+02  0.000E+00  0.000E+00   |  XX0004X0002C              440.                                               0
Series R-L-C.   2.500E+02  0.000E+00  3.000E-10   |  X0001A                    250.       .0003                                   0
Series R-L-C.   1.000E+06  0.000E+00  0.000E+00   |  X0001AX0002A              1.E6                                               0
Series R-L-C.   1.000E+06  0.000E+00  0.000E+00   |  X0001BX0002B              1.E6                                               0
Series R-L-C.   1.000E+06  0.000E+00  0.000E+00   |  X0001CX0002C              1.E6                                               0
Series R-L-C.   2.500E+02  0.000E+00  3.000E-10   |  X0002C                    250.       .0003                                   0
Series R-L-C.   2.500E+02  0.000E+00  3.000E-10   |  X0002A                    250.       .0003                                   0
Series R-L-C.   2.500E+02  0.000E+00  3.000E-10   |  X0001C                    250.       .0003                                   0
Series R-L-C.   1.250E+02  0.000E+00  6.000E-10   |  X0001AX0002A              125.       .0006                                   0
Series R-L-C.   1.250E+02  0.000E+00  6.000E-10   |  X0001BX0002B              125.       .0006                                   0
Series R-L-C.   1.250E+02  0.000E+00  6.000E-10   |  X0001CX0002C              125.       .0006                                   0
 3.556E-01 1.324E+00 6.090E-03 8.319E+02 2.033E-04|-1LN1A  VFF2A             .35564 1.324.0060940.136 0 0                         0
 2.176E-02 2.053E-01 1.690E-02 1.966E+02 1.334E-04|-2LN1B  VFF2B             .02176.20526 .016940.136 0 0                         0
3rd or later transposed distributed phase.        |-3LN1C  VFF2C                                                                  0
Blank card ending branches.  IBR, NTOT = 39  31   |BLANK BRANCH
Comment card.   NUMDCD = 198.                     |C < n 1>< n 2>< Tclose ><Top/Tde ><   Ie   ><Vf/CLOP ><  type  >
Switch.  -1.00E+00  1.00E+01  0.00E+00  0.00E+00  |  LN1A  COMPA        -1.       10.                                             0
Switch.  -1.00E+00  1.00E+01  0.00E+00  0.00E+00  |  LN1B  COMPB        -1.       10.                                             0
Switch.  -1.00E+00  1.00E+01  0.00E+00  0.00E+00  |  LN1C  COMPC        -1.       10.                                             0
Switch.  -1.00E+00  1.00E+01  0.00E+00  0.00E+00  |  VFF2A RSNNHA       -1.       10.                                             0
Switch.  -1.00E+00  1.00E+01  0.00E+00  0.00E+00  |  VFF2B RSNNHB       -1.       10.                                             0
Switch.  -1.00E+00  1.00E+01  0.00E+00  0.00E+00  |  VFF2C RSNNHC       -1.       10.                                             0
Switch.   2.00E+00 -1.00E+00  0.00E+00  0.00E+00  |  VFF2A SE2A          2.       -1.                                             0
Switch.   2.00E+00 -1.00E+00  0.00E+00  0.00E+00  |  VFF2B SE2B          2.       -1.                                             0
Switch.   2.00E+00 -1.00E+00  0.00E+00  0.00E+00  |  VFF2C SE2C          2.       -1.                                             0
Switch.   4.87E-02  1.00E+03  0.00E+00  0.00E+00  |  X0001BXX0003.048670885      1.E3                                             0
Switch.   4.87E-02  1.00E+03  0.00E+00  0.00E+00  |  X0001CXX0004.048670885      1.E3                                             0
Switch.   5.62E-02  1.00E+03  0.00E+00  0.00E+00  |  XX0005X0002A.056170885      1.E3                                             0
Switch.   5.62E-02  1.00E+03  0.00E+00  0.00E+00  |  XX0003X0002B.056170885      1.E3                                             0
Switch.   5.62E-02  1.00E+03  0.00E+00  0.00E+00  |  XX0004X0002C.056170885      1.E3                                             0
Switch.   4.87E-02  1.00E+03  0.00E+00  0.00E+00  |  X0001AXX0005.048670885      1.E3                                             0
Permanently-closed switch used for metering.      |  VFUENAIFUENA                                        MEASURING                1
Permanently-closed switch used for metering.      |  VFUENBIFUENB                                        MEASURING                1
Permanently-closed switch used for metering.      |  VFUENCIFUENC                                        MEASURING                1
Permanently-closed switch used for metering.      |  COMPA RSNSHA                                        MEASURING                1
Permanently-closed switch used for metering.      |  COMPB RSNSHB                                        MEASURING                1
Permanently-closed switch used for metering.      |  COMPC RSNSHC                                        MEASURING                1
Blank card ending switches.   KSWTCH = 21.        |BLANK SWITCH
Comment card.   NUMDCD = 221.                     |C < n 1><>< Ampl.  >< Freq.  ><Phase/T0><   A1   ><   T1   >< TSTART >< TSTOP  >
Source.   4.29E+05  5.00E+01  0.00E+00 -1.00E+00  |14VFUENA  428660.705       50.                                     -1.      100.
Source.   4.29E+05  5.00E+01 -1.20E+02 -1.00E+00  |14VFUENB  428660.705       50.     -120.                           -1.      100.
Source.   4.29E+05  5.00E+01 -2.40E+02 -1.00E+00  |14VFUENC  428660.705       50.     -240.                           -1.      100.
Blank card ends electric sources.  KCONST = 3     |BLANK SOURCE
Pi-equivalent branches of distributed circuits are added to the table of List Size 3 between indices  40   and  45.

Sinusoidal steady-state phasor solution, branch by branch.   All flows are away from a bus,  and the real part,  magnitude,  or  "P"
is printed above the imaginary part,  the angle,  or  "Q".   The first solution frequency  =  5.00000000E+01  Hertz.
  Bus K                        Phasor  node  voltage              Phasor  branch  current               Power flow       Power loss
             Bus M         Rectangular            Polar          Rectangular            Polar            P  and  Q        P  and  Q

 IFUENA                    428660.705       428660.705      .43096217647678  .44590659199617      92368.275198435  .29467004478025
                                  0.0              0.0      .11447397622183       14.8756383       -24535.2476757        1.1640734

            SB1A       428660.7680124  428660.76804623      -.4309621764768  .44590659199617      -92367.98052839
                      -5.385468997017       -0.0007198      -.1144739762218     -165.1243617      24536.411749061

 IFUENB                  -214330.3525       428660.705      -.1163437167588  .44590659199557      92368.275198363  .29467004477978
                      -371231.0601341     -120.0000000      -.4304611810092     -105.1243617      -24535.24767547        1.1640734

            SB1B      -214335.0479592  428660.76804623      .11634371675883  .44590659199557      -92367.98052832
                        -371228.42197     -120.0007198      .43046118100921       74.8756383      24536.411748831

 IFUENC                  -214330.3525       428660.705      -.3146184597166  .44590659199431      92368.275198116  .29467004477767
                      371231.06013415      120.0000000      .31598720478773      134.8756383      -24535.24767535        1.1640734

            SB1C      -214325.7200532  428660.76804623      .31461845971655  .44590659199431      -92367.98052807
                      371233.80743898      119.9992802      -.3159872047877      -45.1243617      24536.411748712

 SB1A                  428660.7680124  428660.76804623      .42866076801E-3  .42866076805E-3      91.875027030991  91.875027030991
                      -5.385468997017       -0.0007198      -.5385468997E-8       -0.0007198      -.970911516E-19        0.0000000

            TERRA                 0.0              0.0       -.428660768E-3  .42866076805E-3                  0.0
                                  0.0              0.0       .5385468997E-8      179.9992802                  0.0

 SB1B                 -214335.0479592  428660.76804623       -.214335048E-3  .42866076805E-3      91.875027030991  91.875027030991
                        -371228.42197     -120.0007198       -.371228422E-3     -120.0007198      .1710437347E-14        0.0000000

            TERRA                 0.0              0.0      .21433504796E-3  .42866076805E-3                  0.0
                                  0.0              0.0      .37122842197E-3       59.9992802                  0.0

 SB1C                 -214325.7200532  428660.76804623      -.2143257201E-3  .42866076805E-3      91.875027030991  91.875027030991
                      371233.80743898      119.9992802      .37123380744E-3      119.9992802      .4822531263E-15        0.0000000

            TERRA                 0.0              0.0      .21432572005E-3  .42866076805E-3                  0.0
                                  0.0              0.0      -.3712338074E-3      -60.0007198                  0.0

 RSNSHA               -569.0624128238  6852.5144312787      -.5690624128E-6  .68525144313E-5      .02347847701544  .02347847701544
                      6828.8448511585       94.7635751      .68288448512E-5       94.7635751      .3324604318E-19        0.0000000

            TERRA                 0.0              0.0      .56906241282E-6  .68525144313E-5                  0.0
                                  0.0              0.0      -.6828844851E-5      -85.2364249                  0.0

 RSNSHB               6198.4843260165  6852.5144312769       .6198484326E-5  .68525144313E-5      .02347847701543  .02347847701543
                      -2921.599919733      -25.2364249       -.292159992E-5      -25.2364249      -.699649214E-18        0.0000000

            TERRA                 0.0              0.0      -.6198484326E-5  .68525144313E-5                  0.0
                                  0.0              0.0      .29215999197E-5      154.7635751                  0.0

 RSNSHC               -5629.421913193  6852.5144312783      -.5629421913E-5  .68525144313E-5      .02347847701544  .02347847701544
                      -3907.244931425     -145.2364249      -.3907244931E-5     -145.2364249      .5963111949E-18        0.0000000

            TERRA                 0.0              0.0      .56294219132E-5  .68525144313E-5                  0.0
                                  0.0              0.0      .39072449314E-5       34.7635751                  0.0

 RSNNHA               -568.9641088892  6842.8777457534      1.8855342986895  1.8956276131272      129.68774878172  129.68774878172
                       6819.182919245       94.7694731      .19535725252913        5.9152201      6484.4772741871     6484.4772742

            TERRA                 0.0              0.0      -1.885534298689  1.8956276131272                  0.0
                                  0.0              0.0      -.1953572525291     -174.0847799                  0.0

 RSNNHB               6190.0676955624  6842.8777457516      -.7735828058406  1.8956276131267      129.68774878165  129.68774878165
                      -2916.854087481      -25.2305269      -1.730599228636     -114.0847799      6484.4772741837     6484.4772742

            TERRA                 0.0              0.0      .77358280584057  1.8956276131267                  0.0
                                  0.0              0.0      1.7305992286362       65.9152201                  0.0

 RSNNHC               -5621.103586673   6842.877745753      -1.111951492849   1.895627613127       129.6877487817   129.6877487817
                      -3902.328831763     -145.2305269       1.535241976107      125.9152201      6484.4772741863     6484.4772742

            TERRA                 0.0              0.0      1.1119514928488   1.895627613127                  0.0
                                  0.0              0.0      -1.535241976107      -54.0847799                  0.0

 X0001B               6198.4843258651   6852.514431315      .27536806996E-3   .6458342697E-3       .5213773799E-4   .5213773799E-4
                      -2921.599920144      -25.2364249      .58418689644E-3       64.7622251      -2.212794326071       -2.2127943

            TERRA                 0.0              0.0        -.27536807E-3   .6458342697E-3                  0.0
                                  0.0              0.0      -.5841868964E-3     -115.2377749                  0.0

 X0002B                -214335.047959   428660.7680458        .034986978513  .04040032558203      .20402328839157  .20402328839157
                      -371228.4219696     -120.0007198      -.0202014267235      -30.0020698      -8659.017294243    -8659.0172942

            TERRA                 0.0              0.0       -.034986978513  .04040032558203                  0.0
                                  0.0              0.0      .02020142672351      149.9979302                  0.0

 X0001A               -569.0624123926  6852.5144313168       .4311635848353  .43748933318054      130.42295385089  .95698458324E-7
                      6828.8448512327       94.7635751       .0741274561733        9.7551632       1493.266187688        0.0000000

            LN1A      -569.0624128238  6852.5144312787      -.4311635848353  .43748933318054      -130.4229537552
                      6828.8448511585       94.7635751      -.0741274561733     -170.2448368      -1493.266187688

 SB1A                  428660.7680124  428660.76804623        .430503860116  .44546365305924      92269.749406773  .99218929961E-7
                      -5.385468997017       -0.0007198      .11447398229336       14.8907725      -24536.41181625        0.0000000

            X0002A    428660.76801197   428660.7680458       -.430503860116  .44546365305924      -92269.74940667
                      -5.385469111491       -0.0007198      -.1144739822934     -165.1092275      24536.411816251

 X0001B               6198.4843258651   6852.514431315      -.1513853931101  .43748918100876      130.42322312689  .95698391739E-7
                      -2921.599920144      -25.2364249      -.4104622348677     -110.2448247      1493.2656408043              0.0

            LN1B      6198.4843260165  6852.5144312769       .1513853931101  .43748918100876      -130.4232230312
                      -2921.599919733      -25.2364249      .41046223486774       69.7551753      -1493.265640804

 SB1B                 -214335.0479592  428660.76804623      -.1161242835224  .44549721446813      92276.757077045   .9923387978E-7
                        -371228.42197     -120.0007198      -.4300964064896     -105.1093583      -24538.04969381              0.0

            X0002B     -214335.047959   428660.7680458      .11612428352237  .44549721446813      -92276.75707695
                      -371228.4219696     -120.0007198      .43009640648961       74.8906417      24538.049693805

 X0001C               -5629.421913472  6852.5144313164      -.2797778506647  .43748911881553       130.4226021167  .95698364511E-7
                      -3907.244931088     -145.2364249      .33633477869444      129.7551522      1493.2654811429              0.0

            LN1C      -5629.421913193  6852.5144312783      .27977785066469  .43748911881553       -130.422602021
                      -3907.244931425     -145.2364249      -.3363347786944      -50.2448478      -1493.265481143

 SB1C                 -214325.7200532  428660.76804623      -.3143795765936  .44546503916221      92270.869003309  .99219541028E-7
                      371233.80743898      119.9992802      .31560193747282      134.8888284      -24533.35735043              0.0

            X0002C    -214325.7200529   428660.7680458      .31437957659364  .44546503916221      -92270.86900321
                      371233.80743867      119.9992802      -.3156019374728      -45.1111716      24533.357350426

 XX0005               428660.76801197   428660.7680458                  0.0              0.0                  0.0              0.0
                      -5.385469111491       -0.0007198                  0.0              0.0                  0.0              0.0

            X0002A    428660.76801197   428660.7680458                  0.0              0.0                  0.0
                      -5.385469111491       -0.0007198                  0.0              0.0                  0.0

 XX0003                -214335.047959   428660.7680458                  0.0              0.0                  0.0              0.0
                      -371228.4219696     -120.0007198                  0.0              0.0                  0.0              0.0

            X0002B     -214335.047959   428660.7680458                  0.0              0.0                  0.0
                      -371228.4219696     -120.0007198                  0.0              0.0                  0.0

 XX0004               -214325.7200529   428660.7680458                  0.0              0.0                  0.0              0.0
                      371233.80743867      119.9992802                  0.0              0.0                  0.0              0.0

            X0002C    -214325.7200529   428660.7680458                  0.0              0.0                  0.0
                      371233.80743867      119.9992802                  0.0              0.0                  0.0

 X0001A               -569.0624123926  6852.5144313168      -.6436047279E-3   .6458342697E-3       .5213773799E-4   .5213773799E-4
                      6828.8448512327       94.7635751      -.5361770425E-4     -175.2377749      -2.212794326072       -2.2127943

            TERRA                 0.0              0.0      .64360472785E-3   .6458342697E-3                  0.0
                                  0.0              0.0      .53617704247E-4        4.7622251                  0.0

 X0001A               -569.0624123926  6852.5144313168      -.4292298304244  .42928423454653      145.46423065369  92142.477015098
                      6828.8448512327       94.7635751      .00683423032034      179.0878093      -1463.627406948        0.0000000

            X0002A    428660.76801197   428660.7680458      .42922983042436  .42928423454653      91997.012784445
                      -5.385469111491       -0.0007198      -.0068342303203       -0.9121907       1463.627406948

 X0001B               6198.4843258651   6852.514431315      .22053353228491  .42928423454653      145.46423065382  92142.477015099
                      -2921.599920144      -25.2364249      .36830682204941       59.0878093      -1463.627406948        0.0000000

            X0002B     -214335.047959   428660.7680458      -.2205335322849  .42928423454653      91997.012784445
                      -371228.4219696     -120.0007198      -.3683068220494     -120.9121907      1463.6274069476

 X0001C               -5629.421913472  6852.5144313164      .20869629813945  .42928423454653      145.46423065406  92142.477015099
                      -3907.244931088     -145.2364249      -.3751410523698      -60.9121907      -1463.627406948        0.0000000

            X0002C    -214325.7200529   428660.7680458      -.2086962981394  .42928423454653      91997.012784445
                      371233.80743867      119.9992802      .37514105236976      119.0878093      1463.6274069478

 X0002C               -214325.7200529   428660.7680458      -.0349884379917  .04040032558203       .2040232883919   .2040232883919
                      371233.80743867      119.9992802      -.0201988988322     -150.0020698      -8659.017294243    -8659.0172942

            TERRA                 0.0              0.0      .03498843799175  .04040032558203                  0.0
                                  0.0              0.0      .02019889883216       29.9979302                  0.0

 X0002A               428660.76801197   428660.7680458      .14594787507E-5  .04040032558203      .20402328839176  .20402328839176
                      -5.385469111491       -0.0007198      .04040032555567       89.9979302      -8659.017294243    -8659.0172942

            TERRA                 0.0              0.0      -.1459478751E-5  .04040032558203                  0.0
                                  0.0              0.0      -.0404003255557      -90.0020698                  0.0

 X0001C               -5629.421913472  6852.5144313164       .3682366579E-3   .6458342697E-3       .5213773799E-4   .5213773799E-4
                      -3907.244931088     -145.2364249      -.5305691922E-3      -55.2377749      -2.212794326071       -2.2127943

            TERRA                 0.0              0.0      -.3682366579E-3   .6458342697E-3                  0.0
                                  0.0              0.0      .53056919219E-3      124.7622251                  0.0

 X0001A               -569.0624123926  6852.5144313168      -.0012901284132  .08091817183074       -275.886620349   .4092344082768
                      6828.8448512327       94.7635751      -.0809078865198      -90.9135407      -27.42586192825   -17368.4477228

            X0002A    428660.76801197   428660.7680458       .0012901284132  .08091817183074      276.29585475725
                      -5.385469111491       -0.0007198      .08090788651983       89.0864593      -17341.02186088

 X0001B               6198.4843258651   6852.514431315      -.0694232208861  .08091817183074      -275.8866203489  .40923440827757
                      -2921.599920144      -25.2364249      .04157122723989      149.0864593      -27.42586192828   -17368.4477228

            X0002B     -214335.047959   428660.7680458      .06942322088608  .08091817183074      276.29585475718
                      -371228.4219696     -120.0007198      -.0415712272399      -30.9135407      -17341.02186088

 X0001C               -5629.421913472  6852.5144313164      .07071334929928  .08091817183074       -275.886620349  .40923440827623
                      -3907.244931088     -145.2364249      .03933665927994       29.0864593      -27.42586192832   -17368.4477228

            X0002C    -214325.7200529   428660.7680458      -.0707133492993  .08091817183074      276.29585475723
                      371233.80743867      119.9992802      -.0393366592799     -150.9135407      -17341.02186088

 LN1A                 -569.0624128238  6852.5144312787      .43116415364559  .43748866313997      130.39799183302   .7102430510032
                      6828.8448511585       94.7635751      .07412019284299        9.7542131      1493.2660632025    -4991.2112110

            VFF2A     -568.9641088892  6842.8777457534       -1.88553429869  1.8956276131273       -129.687748782
                       6819.182919245       94.7694731      -.1953572525292     -174.0847799      -6484.477274188

 LN1B                 6198.4843260165  6852.5144312769      -.1513921068873  .43748866313984      130.39799183273  .71024305106657
                      -2921.599919733      -25.2364249      -.4104592066797     -110.2457869      1493.2660632017    -4991.2112110

            VFF2B     6190.0676955624  6842.8777457516      .77358280584062  1.8956276131268      -129.6877487817
                      -2916.854087481      -25.2305269      1.7305992286363       65.9152201      -6484.477274184

 LN1C                 -5629.421913193  6852.5144312783      -.2797720467581  .43748866313975      130.39799183275  .71024305098552
                      -3907.244931425     -145.2364249      .33633901383659      129.7542131      1493.2660632017    -4991.2112110

            VFF2C     -5621.103586673   6842.877745753      1.1119514928488   1.895627613127      -129.6877487818
                      -3902.328831763     -145.2305269      -1.535241976107      -54.0847799      -6484.477274186
     Total network loss  P-loss  by summing injections =   2.770930589317E+05

Output for steady-state phasor switch currents.
      Node-K    Node-M            I-real            I-imag            I-magn          Degrees        Power            Reactive
      LN1A      COMPA        -5.45615102E-07    6.61047913E-06    6.63295787E-06      94.7184    2.27262127E-02    1.79271607E-05
      LN1B      COMPB         5.76612153E-06   -3.57751102E-06    6.78577502E-06     -31.8170    2.30966349E-02    2.66442288E-03
      LN1C      COMPC        -6.47737051E-06   -4.39054619E-06    7.82516610E-06    -145.8695    2.68093954E-02    2.96218085E-04
      VFF2A     RSNNHA        1.88553430E+00    1.95357253E-01    1.89562761E+00       5.9152    1.29687749E+02    6.48447727E+03
      VFF2B     RSNNHB       -7.73582806E-01   -1.73059923E+00    1.89562761E+00    -114.0848    1.29687749E+02    6.48447727E+03
      VFF2C     RSNNHC       -1.11195149E+00    1.53524198E+00    1.89562761E+00     125.9152    1.29687749E+02    6.48447727E+03
      VFF2A     SE2A              Open              Open              Open             Open          Open              Open
      VFF2B     SE2B              Open              Open              Open             Open          Open              Open
      VFF2C     SE2C              Open              Open              Open             Open          Open              Open
      X0001B    XX0003            Open              Open              Open             Open          Open              Open
      X0001C    XX0004            Open              Open              Open             Open          Open              Open
      XX0005    X0002A            Open              Open              Open             Open          Open              Open
      XX0003    X0002B            Open              Open              Open             Open          Open              Open
      XX0004    X0002C            Open              Open              Open             Open          Open              Open
      X0001A    XX0005            Open              Open              Open             Open          Open              Open
      VFUENA    IFUENA        4.30962176E-01    1.14473976E-01    4.45906592E-01      14.8756    9.23682752E+04   -2.45352477E+04
      VFUENB    IFUENB       -1.16343717E-01   -4.30461181E-01    4.45906592E-01    -105.1244    9.23682752E+04   -2.45352477E+04
      VFUENC    IFUENC       -3.14618460E-01    3.15987205E-01    4.45906592E-01     134.8756    9.23682752E+04   -2.45352477E+04
      COMPA     RSNSHA       -5.45615102E-07    6.61047913E-06    6.63295787E-06      94.7184    2.27262127E-02    1.79271607E-05
      COMPB     RSNSHB        5.76612153E-06   -3.57751102E-06    6.78577502E-06     -31.8170    2.30966349E-02    2.66442288E-03
      COMPC     RSNSHC       -6.47737051E-06   -4.39054619E-06    7.82516610E-06    -145.8695    2.68093954E-02    2.96218085E-04

Solution at nodes with known voltage.   Nodes that are shorted together by switches are shown as a group of names, with the printed
result applying to the composite group.   The entry "MVA" is  SQRT( P**2 + Q**2 )  in units of power,  while  "P.F."  is the
associated power factor.
              Node                Source  node  voltage             Injected  source  current              Injected  source  power
              name         Rectangular            Polar          Rectangular            Polar            P  and  Q    MVA and P.F.

               VFUENA
              IFUENA       428660.705       428660.705      .43096217647602  .44590659199612      92368.275198272  95571.317044603
                                  0.0              0.0      .11447397622452       14.8756383      -24535.24767628        0.9664853

               VFUENB
              IFUENB     -214330.3525       428660.705      -.1163437167644  .44590659199864      92368.275199268  95571.317045142
                      -371231.0601341     -120.0000000      -.4304611810109     -105.1243617      -24535.24767463        0.9664853

               VFUENC
              IFUENC     -214330.3525       428660.705      -.3146184597175  .44590659199534      92368.275198315  95571.317044435
                      371231.06013415      120.0000000      .31598720478827      134.8756383      -24535.24767546        0.9664853

  +++  Node  "COMPC "  has no connected linear branches.  Add (to ground) the conductance  G = 1.00000000E-18  mhos.
  +++  Node  "COMPB "  has no connected linear branches.  Add (to ground) the conductance  G = 1.00000000E-18  mhos.
  +++  Node  "COMPA "  has no connected linear branches.  Add (to ground) the conductance  G = 1.00000000E-18  mhos.
Card of names for time-step loop output.          |  LN1A  LN1B  LN1C  COMPA COMPB COMPC SB1A  SB1B  SB1C  SE2A  SE2B  SE2C  VFF2A
Card of names for time-step loop output.          |  VFF2B VFF2C IFUENAIFUENBIFUENC
Card of names for time-step loop output.          |-5VFF2A VFF2B VFF2B VFF2C VFF2C VFF2A LN1A  LN1B  LN1B  LN1C  LN1C  LN1A
Card of names for time-step loop output.          |-5SB1A  SB1B  SB1B  SB1C  SB1C  SB1A
Blank card ending requests for output variables.  |BLANK OUTPUT

Column headings for the  55   EMTP output variables follow.  These are divided among the 5 possible classes as follows ....
  First  27     output variables are electric-network voltage differences (upper voltage minus lower voltage);
  Next   6     output variables are branch currents (flowing from the upper node to the lower node);
  Next   22     output variables belong to MODELS (with "MODELS" an internally-added upper name of pair).
   Step      Time      LN1A       LN1B       LN1C       COMPA      COMPB      COMPC      SB1A       SB1B       SB1C       SE2A
 

                       SE2B       SE2C       VFF2A      VFF2B      VFF2C      IFUENA     IFUENB     IFUENC     VFF2A      VFF2B
                                                                                                               VFF2B      VFF2C

                       VFF2C      LN1A       LN1B       LN1C       SB1A       SB1B       SB1C       VFUENA     VFUENB     VFUENC
                       VFF2A      LN1B       LN1C       LN1A       SB1B       SB1C       SB1A       IFUENA     IFUENB     IFUENC

                       COMPA      COMPB      COMPC      MODELS     MODELS     MODELS     MODELS     MODELS     MODELS     MODELS
                       RSNSHA     RSNSHB     RSNSHC     ANVOL      LONG       R0F        R1F        X0F        X1F        RDIVX

                       MODELS     MODELS     MODELS     MODELS     MODELS     MODELS     MODELS     MODELS     MODELS     MODELS
                       RINSER     CLOSE1     RPPOS      RPCERO     LPPOS      LPCERO     CPPOS      CPCERO     XP         CR

                       MODELS     MODELS     MODELS     MODELS     MODELS
                       SIMET      ENC1       ENC2       ENC1AS     ENC2AS
 ***      Phasor I(0) = -5.4561510E-07                     Switch  "LN1A  "  to  "COMPA "  closed in the steady-state.
 ***      Phasor I(0) =  5.7661215E-06                     Switch  "LN1B  "  to  "COMPB "  closed in the steady-state.
 ***      Phasor I(0) = -6.4773705E-06                     Switch  "LN1C  "  to  "COMPC "  closed in the steady-state.
 ***      Phasor I(0) =  1.8855343E+00                     Switch  "VFF2A "  to  "RSNNHA"  closed in the steady-state.
 ***      Phasor I(0) = -7.7358281E-01                     Switch  "VFF2B "  to  "RSNNHB"  closed in the steady-state.
 ***      Phasor I(0) = -1.1119515E+00                     Switch  "VFF2C "  to  "RSNNHC"  closed in the steady-state.
 ***      Phasor I(0) =  4.3096218E-01                     Switch  "VFUENA"  to  "IFUENA"  closed in the steady-state.
 ***      Phasor I(0) = -1.1634372E-01                     Switch  "VFUENB"  to  "IFUENB"  closed in the steady-state.
 ***      Phasor I(0) = -3.1461846E-01                     Switch  "VFUENC"  to  "IFUENC"  closed in the steady-state.
 ***      Phasor I(0) = -5.4561510E-07                     Switch  "COMPA "  to  "RSNSHA"  closed in the steady-state.
 ***      Phasor I(0) =  5.7661215E-06                     Switch  "COMPB "  to  "RSNSHB"  closed in the steady-state.
 ***      Phasor I(0) = -6.4773705E-06                     Switch  "COMPC "  to  "RSNSHC"  closed in the steady-state.
      0       0.0  -569.06241 6198.48433 -5629.4219 -569.06241 6198.48433 -5629.4219 428660.768 -214335.05 -214325.72        0.0
                          0.0        0.0 -568.96411  6190.0677 -5621.1036 428660.705 -214330.35 -214330.35 -6759.0318 11811.1713
                   -5052.1395 -6767.5467 11827.9062 -5060.3595 642995.816 -9.3279059 -642986.49 .430962176 -.11634372 -.31461846
                   -.54562E-6 .576612E-5 -.64774E-5        0.0   40.13634   2.346755   2.963986   9.270734   11.70907    .253136
                         440.    .048671    .021758    .355637    .205256   1.324019    .016903    .006087   7218.141   144.3628
                          1.0        0.0        1.0        0.0        0.0
    500     .5E-3  -1630.3253 6579.21044 -4948.8852 -1630.3253 6579.21044 -4948.8852 423384.007 -153623.27 -269760.74        0.0
                          0.0        0.0 -1628.7126 6570.15295 -4941.4403  423383.18 -153618.26 -269764.92 -8198.8656 11511.5933
                   -3312.7277 -8209.5357 11528.0956 -3318.5599 577007.276 116137.469 -693144.75  .40772344 -.04756368 -.36015976
                   -.16021E-5 .693344E-5 -.51046E-5        0.0   40.13634   2.346755   2.963986   9.270734   11.70907    .253136
                         440.    .048671    .021758    .355637    .205256   1.324019    .016903    .006087   7218.141   144.3628
                          1.0        0.0        1.0        0.0        0.0
   1000     .1E-2  -2651.4398 6797.93237 -4146.4926 -2651.4398 6797.93237 -4146.4926 407682.283 -89128.854 -318553.43        0.0
                          0.0        0.0 -2648.3594 6788.46051 -4140.1011 407680.557 -89123.572 -318556.98 -9436.8199 10928.5616
                   -1491.7418 -9449.3721  10944.425 -1495.0528 496811.137 229424.576 -726235.71 .374464747 .022377804 -.39684255
                   -.28519E-5 .685265E-5 -.44552E-5        0.0   40.13634   2.346755   2.963986   9.270734   11.70907    .253136
                         440.    .048671    .021758    .355637    .205256   1.324019    .016903    .006087   7218.141   144.3628
                          1.0        0.0        1.0        0.0        0.0
   1500     .0015  -3607.2684 6849.26736  -3241.999 -3607.2684 6849.26736  -3241.999  381942.01 -22439.761 -359502.25        0.0
                          0.0        0.0 -3602.7921 6839.61234 -3236.8203 381939.485 -22434.368 -359505.12 -10442.404 10076.4326
                   365.971771 -10456.536 10091.2663 365.269375  404381.77 337062.488 -741444.26 .331996845 .091762578 -.42375942
                   -.39739E-5 .681513E-5 -.32964E-5        0.0   40.13634   2.346755   2.963986   9.270734   11.70907    .253136
                         440.    .048671    .021758    .355637    .205256   1.324019    .016903    .006087   7218.141   144.3628
                          1.0        0.0        1.0        0.0        0.0
   2000      .002  -4474.2748 6731.95111 -2257.6763 -4474.2748 6731.95111 -2257.6763  346797.02 44801.8912 -391598.91        0.0
                          0.0        0.0 -4468.5151 6722.35191 -2253.8368 346793.795 44807.2448 -391601.04 -11190.867 8976.18869
                   2214.67836 -11206.226 8989.62745 2216.59842 301995.129 436400.803 -738395.93 .281349943 .158889915 -.44023986
                   -.47481E-5 .724266E-5  -.2495E-5        0.0   40.13634   2.346755   2.963986   9.270734   11.70907    .253136
                         440.    .048671    .021758    .355637    .205256   1.324019    .016903    .006087   7218.141   144.3628
                          1.0        0.0        1.0        0.0        0.0
   2500     .0025  -5231.1098 6448.87191 -1217.7621 -5231.1098 6448.87191 -1217.7621 303112.751 110940.365 -414053.12        0.0
                          0.0        0.0  -5224.207 6439.56404  -1215.357 303108.891 110945.554 -414054.45 -11663.771 7654.92107
                   4008.84996 -11679.982 7666.63405 4013.34762 192172.386 524993.482 -717165.87 .223772458 .222106261 -.44587872
                    -.5603E-5 .660949E-5 -.12341E-5        0.0   40.13634   2.346755   2.963986   9.270734   11.70907    .253136
                         440.    .048671    .021758    .355637    .205256   1.324019    .016903    .006087   7218.141   144.3628
                          1.0        0.0        1.0        0.0        0.0
   3000      .003  -5859.1374 6007.00007 -147.86268 -5859.1374 6007.00007 -147.86268 251964.848 174347.115 -426311.96        0.0
                          0.0        0.0  -5851.261 5998.21246 -146.95151 251960.441 174352.016 -426312.46 -11849.473 6145.16397
                   5704.30944 -11866.137 6154.86275 5711.27471 77617.7329 600659.079 -678276.81 .160685764 .279853209 -.44053897
                   -.57813E-5 .670852E-5 -.16049E-6        0.0   40.13634   2.346755   2.963986   9.270734   11.70907    .253136
                         440.    .048671    .021758    .355637    .205256   1.324019    .016903    .006087   7218.141   144.3628
                          1.0        0.0        1.0        0.0        0.0
   3500     .0035  -6342.8924  5417.2154 925.677008 -6342.8924  5417.2154 925.677008  194612.73 233460.863 -428073.59        0.0
                          0.0        0.0 -6334.2373 5409.16495 925.072312 194607.888 233465.353 -428073.24 -11743.402 4484.09264
                   7259.30958 -11760.108  4491.5384 7268.56942 -38848.133 661534.456 -622686.32 .093643197 .330708867 -.42435206
                   -.64653E-5 .529523E-5 .942673E-6        0.0   40.13634   2.346755   2.963986   9.270734   11.70907    .253136
                         440.    .048671    .021758    .355637    .205256   1.324019    .016903    .006087   7218.141   144.3628
                          1.0        0.0        1.0        0.0        0.0
   4000      .004   -6670.466 4694.04194 1976.42411  -6670.466 4694.04194 1976.42411 132468.593 286826.033 -419294.63        0.0
                          0.0        0.0 -6661.2437 4686.92604  1974.3177 132463.443 286829.997 -419293.44  -11348.17 2712.60835
                   8635.56144 -11364.508 2717.61783 8646.89015 -154357.44 706120.659 -551763.22   .0242952 .373421192 -.39771639
                   -.70659E-5 .464542E-5 .196556E-5        0.0   40.13634   2.346755   2.963986   9.270734   11.70907    .253136
                         440.    .048671    .021758    .355637    .205256   1.324019    .016903    .006087   7218.141   144.3628
                          1.0        0.0        1.0        0.0        0.0
   4500     .0045  -6833.7903 3855.28535 2978.50497 -6833.7903 3855.28535 2978.50497 67062.6466 333128.591 -400191.24        0.0
                          0.0        0.0 -6824.2287 3849.27965 2974.94905 67057.3081 333131.936 -400189.24 -10673.508 874.330597
                   9799.17776 -10689.076 876.780379 9812.29529 -266065.94 733319.828 -467253.88 -.04565161 .406938938 -.36128733
                   -.67121E-5 .398844E-5 .317791E-5        0.0   40.13634   2.346755   2.963986   9.270734   11.70907    .253136
                         440.    .048671    .021758    .355637    .205256   1.324019    .016903    .006087   7218.141   144.3628
                          1.0        0.0        1.0        0.0        0.0
   5000      .005  -6828.8436 2921.59871 3907.24493 -6828.8436 2921.59871 3907.24493 5.39500778 371228.417 -371233.81        0.0
                          0.0        0.0 -6819.1791 2916.85157 3902.32755 -.45661E-7  371231.06 -371231.06 -9736.0307 -985.47598
                   10721.5067 -9750.4423 -985.64622 10736.0886 -371223.02  742462.23 -371239.21 -.11447433 .430436501 -.31596217
                    -.7053E-5 .291984E-5 .413274E-5        0.0   40.13634   2.346755   2.963986   9.270734   11.70907    .253136
                         440.    .048671    .021758    .355637    .205256   1.324019    .016903    .006087   7218.141   144.3628
                          1.0        0.0        1.0        0.0        0.0
   5500     .0055  -6655.7479 1915.97252 4739.77537 -6655.7479 1915.97252 4739.77537  -67051.99 400187.369 -333135.38        0.0
                          0.0        0.0 -6646.2183 1912.60077 4733.61756 -67057.308 400189.244 -333131.94 -8558.8191 -2821.0168
                   11379.8359 -8571.7204 -2823.8028 11395.5233 -467239.36 733322.747 -266083.39 -.18047824 .443335248 -.26285701
                   -.71684E-5 .198423E-5 .472926E-5        0.0   40.13634   2.346755   2.963986   9.270734   11.70907    .253136
                         440.    .048671    .021758    .355637    .205256   1.324019    .016903    .006087   7218.141   144.3628
                          1.0        0.0        1.0        0.0        0.0
   6000      .006  -6318.7652 863.168722  5455.5965 -6318.7652 863.168722  5455.5965 -132458.33 419292.379 -286834.04        0.0
                          0.0        0.0 -6309.6055 861.255517 5448.34995 -132463.44  419293.44   -286830.  -7170.861 -4587.0944
                   11757.9554 -7181.9339 -4592.4278 11774.3617 -551750.71 706126.424 -154375.71 -.24203801 .445317529 -.20327952
                   -.66045E-5 .884118E-6 .549294E-5        0.0   40.13634   2.346755   2.963986   9.270734   11.70907    .253136
                         440.    .048671    .021758    .355637    .205256   1.324019    .016903    .006087   7218.141   144.3628
                          1.0        0.0        1.0        0.0        0.0
   6500     .0065  -5826.1936 -210.88919 6037.08278 -5826.1936 -210.88919 6037.08278 -194603.11 428073.019 -233469.91        0.0
                          0.0        0.0 -5817.6295 -211.29663  6028.9261 -194607.89  428073.24 -233465.35 -5606.3328 -6240.2227
                   11846.5556 -5615.3044  -6247.972 11863.2764 -622676.13 661542.925 -38866.792 -.29763777 .436334502 -.13869673
                    -.5983E-5 -.22596E-6 .671996E-5        0.0   40.13634   2.346755   2.963986   9.270734   11.70907    .253136
                         440.    .048671    .021758    .355637    .205256   1.324019    .016903    .006087   7218.141   144.3628
                          1.0        0.0        1.0        0.0        0.0
   7000      .007  -5190.1625 -1279.7539 6469.91639 -5190.1625 -1279.7539 6469.91639 -251956.12  426313.08 -174356.96        0.0
                          0.0        0.0 -5182.4042 -1278.6459 6461.05009 -251960.44 426312.457 -174352.02 -3903.7584  -7739.696
                   11643.4543 -3910.4086 -7749.6703 11660.0789  -678269.2 600670.044 77599.1524 -.34590861 .416607423 -.07069881
                   -.49909E-5  -.1451E-5 .644242E-5        0.0   40.13634   2.346755   2.963986   9.270734   11.70907    .253136
                         440.    .048671    .021758    .355637    .205256   1.324019    .016903    .006087   7218.141   144.3628
                          1.0        0.0        1.0        0.0        0.0
   7500     .0075  -4426.3332 -2317.1064 6743.43962 -4426.3332 -2317.1064 6743.43962 -303105.12 414055.898 -110950.77        0.0
                          0.0        0.0  -4419.571 -2314.5106 6734.08158 -303108.89 414054.446 -110945.55 -2105.0604 -9048.5922
                   11153.6526 -2109.2268  -9060.546 11169.7729 -717161.02 525006.673 192154.348 -.38566224  .38662219 -.95995E-3
                    -.4381E-5 -.23496E-5 .718562E-5        0.0   40.13634   2.346755   2.963986   9.270734   11.70907    .253136
                         440.    .048671    .021758    .355637    .205256   1.324019    .016903    .006087   7218.141   144.3628
                          1.0        0.0        1.0        0.0        0.0
   8000      .008  -3553.5119 -3297.4044  6850.9163 -3553.5119 -3297.4044  6850.9163 -346790.68 391603.288 -44812.607        0.0
                          0.0        0.0 -3547.9127 -3293.3845 6841.29726  -346793.8  391601.04 -44807.245 -254.52822 -10134.682
                     10389.21 -256.10752 -10148.321 10404.4282 -738393.97 436415.895 301978.074 -.41591962 .347117052  .06880257
                   -.35489E-5 -.36018E-5 .715023E-5        0.0   40.13634   2.346755   2.963986   9.270734   11.70907    .253136
                         440.    .048671    .021758    .355637    .205256   1.324019    .016903    .006087   7218.141   144.3628
                          1.0        0.0        1.0        0.0        0.0
   8500     .0085  -2593.1915 -4196.5094 6789.70088 -2593.1915 -4196.5094 6789.70088  -381937.1 359508.104 22428.9942        0.0
                          0.0        0.0 -2588.8925 -4191.1647 6780.05728 -381939.48 359505.117 22434.3679 1602.27222 -10971.222
                   9368.94981 1603.31787  -10986.21 9382.89238  -741445.2 337079.109 404366.092 -.43593552 .299064661 .136870857
                   -.27382E-5 -.45039E-5 .678748E-5        0.0   40.13634   2.346755   2.963986   9.270734   11.70907    .253136
                         440.    .048671    .021758    .355637    .205256   1.324019    .016903    .006087   7218.141   144.3628
                          1.0        0.0        1.0        0.0        0.0
   9000      .009  -1569.0184 -4992.2822 6561.30062 -1569.0184 -4992.2822 6561.30062 -407678.95 318560.636 89118.3187        0.0
                          0.0        0.0 -1566.1254 -4985.7445 6551.86991 -407680.56 318556.985  89123.572 3419.61902 -11537.614
                   8117.99535 3423.26384 -11553.583 8130.31901 -726239.59 229442.317 496797.274  -.4452172 .243648292 .201568912
                   -.16315E-5  -.4923E-5 .723731E-5        0.0   40.13634   2.346755   2.963986   9.270734   11.70907    .253136
                         440.    .048671    .021758    .355637    .205256   1.324019    .016903    .006087   7218.141   144.3628
                          1.0        0.0        1.0        0.0        0.0
   9500     .0095  -506.21129 -5665.1283 6171.33962 -506.21129 -5665.1283 6171.33962  -423382.4 269769.148 153613.254        0.0
                          0.0        0.0 -504.79711 -5657.5577 6162.35477 -423383.18 269764.922 153618.258 5152.76055 -11819.912
                   6667.15189 5158.91704 -11836.468 6677.55091 -693151.55 116155.894 576995.657 -.44353627 .182232546 .261303728
                   -.50568E-6  -.6194E-5 .658538E-5        0.0   40.13634   2.346755   2.963986   9.270734   11.70907    .253136
                         440.    .048671    .021758    .355637    .205256   1.324019    .016903    .006087   7218.141   144.3628
                          1.0        0.0        1.0        0.0        0.0
  10000       .01   569.06062 -6198.4802 5629.41958  569.06062 -6198.4802 5629.41958 -428660.77 214335.049 214325.722        0.0
                          0.0        0.0 568.962157 -6190.0635 5621.10132 -428660.71 214330.353 214330.352 6759.02564 -11811.165
                   5052.13917 6767.54082   -11827.9 5060.35896 -642995.82 9.32736218 642986.492 -.43093418 .116329713 .314604465
                   .635205E-6 -.69192E-5 .560144E-5        0.0   40.13634   2.346755   2.963986   9.270734   11.70907    .253136
                         440.    .048671    .021758    .355637    .205256   1.324019    .016903    .006087   7218.141   144.3628
                          1.0        0.0        1.0        0.0        0.0
  10500     .0105  1630.32122 -6579.2054 4948.88423 1630.32122 -6579.2054 4948.88423 -423384.09  153623.31 269760.779        0.0
                          0.0        0.0 1628.71204 -6570.1497 4941.43766 -423383.18 153618.258 269764.922 8198.86174 -11511.587
                   3312.72562 8209.52666  -11528.09 3318.56301  -577007.4 -116137.47 693144.867   -.407721 .047562432 .360158571
                   .168314E-5 -.69552E-5 .504497E-5        0.0   40.13634   2.346755   2.963986   9.270734   11.70907    .253136
                         440.    .048671    .021758    .355637    .205256   1.324019    .016903    .006087   7218.141   144.3628
                          1.0        0.0        1.0        0.0        0.0
  11000      .011  2651.43848 -6797.9291 4146.49066 2651.43848 -6797.9291 4146.49066 -407682.28 89128.8543  318553.43        0.0
                          0.0        0.0 2648.35761 -6788.4571 4140.09945 -407680.56  89123.572 318556.985 9436.81466 -10928.557
                   1491.74184 9449.36762  -10944.42 1495.05218 -496811.14 -229424.58 726235.715 -.37446806 -.02237615 .396844212
                   .262329E-5 -.69604E-5 .433694E-5        0.0   40.13634   2.346755   2.963986   9.270734   11.70907    .253136
                         440.    .048671    .021758    .355637    .205256   1.324019    .016903    .006087   7218.141   144.3628
                          1.0        0.0        1.0        0.0        0.0
  11500     .0115  3607.26602 -6849.2641 3241.99804 3607.26602 -6849.2641 3241.99804 -381941.99   22439.75 359502.238        0.0
                          0.0        0.0 3602.79121 -6839.6098 3236.81861 -381939.48 22434.3679 359505.117  10442.401 -10076.428
                   -365.97261 10456.5301 -10091.262 -365.26798 -404381.74 -337062.49 741444.226 -.33199438 -.09176381 .423758185
                   .360932E-5 -.68635E-5 .325451E-5        0.0   40.13634   2.346755   2.963986   9.270734   11.70907    .253136
                         440.    .048671    .021758    .355637    .205256   1.324019    .016903    .006087   7218.141   144.3628
                          1.0        0.0        1.0        0.0        0.0
  12000      .012  4474.27127 -6731.9476 2257.67634 4474.27127 -6731.9476 2257.67634 -346797.01 -44801.894 391598.909        0.0
                          0.0        0.0 4468.51193 -6722.3486 2253.83663  -346793.8 -44807.245  391601.04 11190.8605 -8976.1852
                   -2214.6753 11206.2189 -8989.6239 -2216.5949 -301995.12  -436400.8 738395.924 -.28134643 -.15889167 .440238098
                    .50534E-5 -.69441E-5   .2346E-5        0.0   40.13634   2.346755   2.963986   9.270734   11.70907    .253136
                         440.    .048671    .021758    .355637    .205256   1.324019    .016903    .006087   7218.141   144.3628
                          1.0        0.0        1.0        0.0        0.0
  12500     .0125  5231.10577 -6448.8687 1217.76297 5231.10577 -6448.8687 1217.76297 -303112.75 -110940.37 414053.115        0.0
                          0.0        0.0 5224.20377 -6439.5612 1215.35748 -303108.89 -110945.55 414054.446  11663.765 -7654.9187
                   -4008.8463 11679.9745 -7666.6317 -4013.3428 -192172.38 -524993.48 717165.862 -.22377071 -.22210714 .445877844
                   .525975E-5 -.68923E-5 .117812E-5        0.0   40.13634   2.346755   2.963986   9.270734   11.70907    .253136
                         440.    .048671    .021758    .355637    .205256   1.324019    .016903    .006087   7218.141   144.3628
                          1.0        0.0        1.0        0.0        0.0
  13000      .013  5859.13343 -6006.9975 147.864101 5859.13343 -6006.9975 147.864101 -251964.84 -174347.12 426311.959        0.0
                          0.0        0.0  5851.2598 -5998.2113 146.951523 -251960.44 -174352.02 426312.457 11849.4711 -6145.1628
                   -5704.3083  11866.131 -6154.8616 -5711.2693 -77617.718 -600659.08 678276.797 -.16068491 -.27985363 .440538546
                   .607938E-5 -.64028E-5 .153246E-6        0.0   40.13634   2.346755   2.963986   9.270734   11.70907    .253136
                         440.    .048671    .021758    .355637    .205256   1.324019    .016903    .006087   7218.141   144.3628
                          1.0        0.0        1.0        0.0        0.0
  13500     .0135  6342.88937  -5417.214 -925.67541 6342.88937  -5417.214 -925.67541 -194612.72 -233460.87 428073.587        0.0
                          0.0        0.0 6334.23615 -5409.1645 -925.07169 -194607.89 -233465.35  428073.24 11743.4006 -4484.0928
                   -7259.3078 11760.1033 -4491.5385 -7268.5648 38848.1506 -661534.46 622686.305 -.09364241 -.33070926  .42435167
                   .692255E-5 -.59809E-5 -.94163E-6        0.0   40.13634   2.346755   2.963986   9.270734   11.70907    .253136
                         440.    .048671    .021758    .355637    .205256   1.324019    .016903    .006087   7218.141   144.3628
                          1.0        0.0        1.0        0.0        0.0
  14000      .014   6670.4618 -4694.0403 -1976.4215  6670.4618 -4694.0403 -1976.4215 -132468.59 -286826.04 419294.623        0.0
                          0.0        0.0 6661.24242 -4686.9259 -1974.3165 -132463.44   -286830.  419293.44 11348.1683 -2712.6094
                   -8635.5589 11364.5021 -2717.6189 -8646.8833  154357.45 -706120.66 551763.209 -.02429426 -.37342166 .397715918
                    .73761E-5 -.52608E-5 -.21155E-5        0.0   40.13634   2.346755   2.963986   9.270734   11.70907    .253136
                         440.    .048671    .021758    .355637    .205256   1.324019    .016903    .006087   7218.141   144.3628
                          1.0        0.0        1.0        0.0        0.0
  14500     .0145  6833.78553 -3855.2841 -2978.5014 6833.78553 -3855.2841 -2978.5014 -67062.638  -333128.6 400191.233        0.0
                          0.0        0.0  6824.2274 -3849.2801 -2974.9473 -67057.308 -333131.94 400189.244 10673.5075 -874.33287
                   -9799.1747 10689.0696 -876.78265  -9812.287 266065.957 -733319.83 467253.871 .045651892 -.40693908 .361287183
                   .737866E-5 -.38706E-5 -.30529E-5        0.0   40.13634   2.346755   2.963986   9.270734   11.70907    .253136
                         440.    .048671    .021758    .355637    .205256   1.324019    .016903    .006087   7218.141   144.3628
                          1.0        0.0        1.0        0.0        0.0
  % % % % % %   Suspended simulation;  plot data space exhausted;  SPY SPACE is required.   LIMBUF =  840000.
  % % % % % %   Suspended simulation;  plot data space exhausted;  SPY SPACE is required.   LIMBUF =  840000.
  +++  Time-sharing disabled.   Send  user-keyed interrupt to silence alarm.
   Current values.  INDBUF  INDBEG  LIMBUF  MFLUSH  NUMDCD  KCARD1  KCARD2
                    839994      50  840000    1000     230       1     231
Plot timespan now in memory (in sec) = 0.00000000E+00   1.49990000E-02
   ++++  Begin plot-data copy from memory to disk.   MFLUSH, INDBUF, N4, Tbeg,  Tend = 1001  839994       1  -1.00000E+00
1.00000E+19
  15000      .015  6828.84059 -2921.5989 -3907.2417 6828.84059 -2921.5989 -3907.2417 -5.3861986 -371228.42 371233.808        0.0
                          0.0        0.0 6819.17782 -2916.8526 -3902.3252 -.61533E-6 -371231.06  371231.06 9736.03044 985.472569
                   -10721.503 9750.43949 985.642798 -10736.082 371223.035 -742462.23 371239.194 .114474046 -.43043636 .315962309
                   .725552E-5 -.30227E-5 -.42326E-5        0.0   40.13634   2.346755   2.963986   9.270734   11.70907    .253136
                         440.    .048671    .021758    .355637    .205256   1.324019    .016903    .006087   7218.141   144.3628
                          1.0        0.0        1.0        0.0        0.0
  15500     .0155  6655.74555 -1915.9736  -4739.772 6655.74555 -1915.9736  -4739.772 67051.9981 -400187.37 333135.374        0.0
                          0.0        0.0 6646.21748 -1912.6026 -4733.6149 67057.3081 -400189.24 333131.936 8558.82004 2821.01237
                   -11379.832  8571.7191 2823.79844 -11395.518  467239.37 -733322.75 266083.376 .180477911 -.44333508 .262857167
                   .655394E-5 -.19097E-5 -.48704E-5        0.0   40.13634   2.346755   2.963986   9.270734   11.70907    .253136
                         440.    .048671    .021758    .355637    .205256   1.324019    .016903    .006087   7218.141   144.3628
                          1.0        0.0        1.0        0.0        0.0
  16000      .016  6318.76332 -863.17026 -5455.5931 6318.76332 -863.17026 -5455.5931  132458.34 -419292.38 286834.042        0.0
                          0.0        0.0 6309.60471 -861.25762 -5448.3471 132463.443 -419293.44 286829.997 7170.86233 4587.08947
                   -11757.952 7181.93358  4592.4228 -11774.356 551750.722 -706126.42 154375.702 .242037421 -.44531723 .203279809
                   .701327E-5 -.86491E-6 -.56936E-5        0.0   40.13634   2.346755   2.963986   9.270734   11.70907    .253136
                         440.    .048671    .021758    .355637    .205256   1.324019    .016903    .006087   7218.141   144.3628
                          1.0        0.0        1.0        0.0        0.0
  16500     .0165  5826.19249 210.886893 -6037.0794 5826.19249 210.886893 -6037.0794 194603.118 -428073.02 233469.903        0.0
                          0.0        0.0 5817.62812 211.294462 -6028.9226 194607.888 -428073.24 233465.353 5606.33366 6240.21704
                   -11846.551  5615.3056 6247.96628 -11863.272  622676.14 -661542.93 38866.7854  .29763714 -.43633418 .138697039
                   .636934E-5  .22738E-6     -.6E-5        0.0   40.13634   2.346755   2.963986   9.270734   11.70907    .253136
                         440.    .048671    .021758    .355637    .205256   1.324019    .016903    .006087   7218.141   144.3628
                          1.0        0.0        1.0        0.0        0.0
  17000      .017  5190.16194 1279.75106  -6469.913 5190.16194 1279.75106  -6469.913 251956.121 -426313.08 174356.961        0.0
                          0.0        0.0 5182.40373   1278.643 -6461.0467 251960.441 -426312.46 174352.016 3903.76074 7739.68972
                    -11643.45 3910.41088 7749.66406 -11660.075 678269.204 -600670.04  -77599.16 .345907956 -.41660709 .070699135
                   .536193E-5 .126257E-5  -.6624E-5        0.0   40.13634   2.346755   2.963986   9.270734   11.70907    .253136
                         440.    .048671    .021758    .355637    .205256   1.324019    .016903    .006087   7218.141   144.3628
                          1.0        0.0        1.0        0.0        0.0
  17500     .0175  4426.33282 2317.10332 -6743.4361 4426.33282 2317.10332 -6743.4361 303105.128  -414055.9 110950.773        0.0
                          0.0        0.0 4419.57103 2314.50732 -6734.0784 303108.891 -414054.45 110945.554  2105.0637 9048.58568
                   -11153.649  2109.2295 9060.53946 -11169.769 717161.028 -525006.67 -192154.36 .385661486 -.38662181 .960321E-3
                   .496046E-5 .250915E-5 -.74697E-5        0.0   40.13634   2.346755   2.963986   9.270734   11.70907    .253136
                         440.    .048671    .021758    .355637    .205256   1.324019    .016903    .006087   7218.141   144.3628
                          1.0        0.0        1.0        0.0        0.0
  18000      .018  3553.51261 3297.40087 -6850.9135 3553.51261 3297.40087 -6850.9135 346790.681 -391603.29 44812.6072        0.0
                          0.0        0.0 3547.91307 3293.38118 -6841.2943 346793.795 -391601.04 44807.2448 254.531889 10134.6754
                   -10389.207 256.111733 10148.3144 -10404.426 738393.968 -436415.89 -301978.07 .415918861 -.34711667 -.06880219
                    .36264E-5 .333349E-5 -.74147E-5        0.0   40.13634   2.346755   2.963986   9.270734   11.70907    .253136
                         440.    .048671    .021758    .355637    .205256   1.324019    .016903    .006087   7218.141   144.3628
                          1.0        0.0        1.0        0.0        0.0
  18500     .0185  2593.19234 4196.50582 -6789.6982 2593.19234 4196.50582 -6789.6982 381937.097  -359508.1 -22428.994        0.0
                          0.0        0.0 2588.89375   4191.161 -6780.0548 381939.485 -359505.12 -22434.368 -1602.2672 10971.2158
                   -9368.9485 -1603.3135  10986.204 -9382.8905 741445.201 -337079.11 -404366.09 .435934884 -.29906434 -.13687054
                   .262283E-5  .43312E-5 -.69537E-5        0.0   40.13634   2.346755   2.963986   9.270734   11.70907    .253136
                         440.    .048671    .021758    .355637    .205256   1.324019    .016903    .006087   7218.141   144.3628
                          1.0        0.0        1.0        0.0        0.0
  19000      .019  1569.01975 4992.27853 -6561.2983 1569.01975 4992.27853 -6561.2983 407678.955 -318560.64 -89118.319        0.0
                          0.0        0.0 1566.12734 4985.74051 -6551.8679 407680.557 -318556.98 -89123.572 -3419.6132 11537.6084
                   -8117.9952 -3423.2588 11553.5768  -8130.318 726239.591 -229442.32 -496797.27 .445216543 -.24364796 -.20156858
                   .157908E-5 .563046E-5 -.65267E-5        0.0   40.13634   2.346755   2.963986   9.270734   11.70907    .253136
                         440.    .048671    .021758    .355637    .205256   1.324019    .016903    .006087   7218.141   144.3628
                          1.0        0.0        1.0        0.0        0.0
  19500     .0195  506.213201 5665.12465 -6171.3378 506.213201 5665.12465 -6171.3378 423382.402 -269769.15 -153613.25        0.0
                          0.0        0.0 504.798268 5657.55434 -6162.3526  423383.18 -269764.92 -153618.26 -5152.7561 11819.9069
                   -6667.1509 -5158.9114 11836.4625  -6677.551 693151.549 -116155.89 -576995.66 .443535765 -.18223229 -.26130348
                   .517366E-6 .601156E-5 -.67567E-5        0.0   40.13634   2.346755   2.963986   9.270734   11.70907    .253136
                         440.    .048671    .021758    .355637    .205256   1.324019    .016903    .006087   7218.141   144.3628
                          1.0        0.0        1.0        0.0        0.0
  20000       .02  -569.05856 6198.47689 -5629.4183 -569.05856 6198.47689 -5629.4183 428660.769 -214335.05 -214325.72        0.0
                          0.0        0.0  -568.9602 6190.06023    -5621.1 428660.705 -214330.35 -214330.35 -6759.0204 11811.1603
                   -5052.1398 -6767.5355 11827.8952 -5060.3598 642995.817 -9.3273421 -642986.49 .430933566 -.11632941 -.31460416
                   -.59102E-6 .672683E-5 -.57942E-5        0.0   40.13634   2.346755   2.963986   9.270734   11.70907    .253136
                         440.    .048671    .021758    .355637    .205256   1.324019    .016903    .006087   7218.141   144.3628
                          1.0        0.0        1.0        0.0        0.0
  20500     .0205  -1630.3182 6579.20208 -4948.8838 -1630.3182 6579.20208 -4948.8838 423384.086 -153623.31 -269760.78        0.0
                          0.0        0.0 -1628.7097 6570.14663  -4941.437  423383.18 -153618.26 -269764.92 -8198.8563 11511.5836
                   -3312.7273 -8209.5203 11528.0859 -3318.5656 577007.395 116137.469 -693144.86 .407720453 -.04756216  -.3601583
                   -.18123E-5 .679331E-5 -.52075E-5        0.0   40.13634   2.346755   2.963986   9.270734   11.70907    .253136
                         440.    .048671    .021758    .355637    .205256   1.324019    .016903    .006087   7218.141   144.3628
                          1.0        0.0        1.0        0.0        0.0
  21000      .021  -2651.4345  6797.9257 -4146.4912 -2651.4345  6797.9257 -4146.4912 407682.282 -89128.853 -318553.43        0.0
                          0.0        0.0 -2648.3552 6788.45442 -4140.0992 407680.557 -89123.572 -318556.98 -9436.8097 10928.5536
                   -1491.7439 -9449.3602 10944.4169 -1495.0567 496811.136 229424.576 -726235.71 .374467792 .022376288 -.39684408
                   -.29881E-5 .691579E-5  -.4383E-5        0.0   40.13634   2.346755   2.963986   9.270734   11.70907    .253136
[...]
                         440.    .048671    .021758    .355637    .205256   1.324019    .016903    .006087   7218.141   144.3628
                          1.0        0.0        1.0        0.0        0.0
 113000      .113  -250436.65 -169722.52 420159.173 -250436.65 -169722.52 420159.173 -250436.65 -169722.52 420159.174        0.0
                          0.0        0.0 -249322.92  -171449.8 420772.713 -251960.44 -174352.02 426312.457  -77873.12 -592222.51
                   670095.629 -80714.135 -589881.69 670595.828 -80714.135 -589881.69 670595.828 -47.711531 -26.019249 73.7307821
                   -.28422E-3 -.18191E-3 .436991E-3        0.0   40.13634   2.346755   2.963986   9.270734   11.70907    .253136
                         440.    .048671    .021758    .355637    .205256   1.324019    .016903    .006087   7218.141   144.3628
                          1.0        0.0        1.0        0.0        0.0
 113500     .1135   -194440.2 -234871.58 429311.783  -194440.2 -234871.58 429311.783  -194440.2 -234871.58 429311.783        0.0
                          0.0        0.0 -195941.11 -237394.21 433335.326 -194607.89 -233465.35  428073.24 41453.1017 -670729.54
                   629276.438 40431.3759 -664183.36 623751.986 40431.3758 -664183.36 623751.986 -37.478066 -15.310572   52.78864
                   -.19524E-3 -.26013E-3 .455379E-3        0.0   40.13634   2.346755   2.963986   9.270734   11.70907    .253136
                         440.    .048671    .021758    .355637    .205256   1.324019    .016903    .006087   7218.141   144.3628
                          1.0        0.0        1.0        0.0        0.0
 114000      .114  -124962.81  -286458.5 411421.307 -124962.81  -286458.5 411421.307 -124962.81  -286458.5 411421.307        0.0
                          0.0        0.0 -126874.46 -285700.98 412575.439 -132463.44   -286830.  419293.44 158826.515 -698276.42
                     539449.9 161495.689 -697879.81 536384.116 161495.689 -697879.81 536384.117 -42.391744 -24.030139 66.4218849
                   -.12857E-3 -.30317E-3 .475407E-3        0.0   40.13634   2.346755   2.963986   9.270734   11.70907    .253136
                         440.    .048671    .021758    .355637    .205256   1.324019    .016903    .006087   7218.141   144.3628
                          1.0        0.0        1.0        0.0        0.0
 114500     .1145  -70120.006 -333976.58 404096.586 -70120.006 -333976.58 404096.586 -70120.006 -333976.58 404096.586        0.0
                          0.0        0.0 -70012.268 -337584.17  407596.44 -67057.308 -333131.94 400189.244 267571.904 -745180.61
                   477608.708 263856.573 -738073.17 474216.592 263856.573 -738073.17 474216.592 -42.693619 -31.395693 74.0893141
                   -.72926E-4   -.372E-3 .401288E-3        0.0   40.13634   2.346755   2.963986   9.270734   11.70907    .253136
                         440.    .048671    .021758    .355637    .205256   1.324019    .016903    .006087   7218.141   144.3628
                          1.0        0.0        1.0        0.0        0.0
 115000      .115  12.9809759 -366797.77 366784.791 12.9809759 -366797.77 366784.791 12.9809018 -366797.77 366784.791        0.0
                          0.0        0.0 -819.23228 -366914.53 367733.758 .127058E-4 -371231.06  371231.06 366095.294 -734648.28
                    368552.99 366810.753 -733582.56  366771.81 366810.753 -733582.56  366771.81 -37.046872 -24.114652 61.1615256
                    .14485E-7 -.38414E-3 .388473E-3        0.0   40.13634   2.346755   2.963986   9.270734   11.70907    .253136
                         440.    .048671    .021758    .355637    .205256   1.324019    .016903    .006087   7218.141   144.3628
                          1.0        0.0        1.0        0.0        0.0
 115500     .1155   65251.295 -399132.16 333880.863  65251.295 -399132.16 333880.863 65251.2949 -399132.16 333880.863        0.0
                          0.0        0.0 62069.8334 -399825.43   337755.6 67057.3081 -400189.24 333131.936 461895.266 -737581.03
                   275685.766 464383.453 -733013.02 268629.568 464383.453 -733013.02 268629.568 -49.747986 -43.660425 93.4084115
                   .721787E-4 -.44702E-3 .345737E-3        0.0   40.13634   2.346755   2.963986   9.270734   11.70907    .253136
                         440.    .048671    .021758    .355637    .205256   1.324019    .016903    .006087   7218.141   144.3628
                          1.0        0.0        1.0        0.0        0.0
 116000      .116  134108.924 -416639.19  282530.27 134108.924 -416639.19  282530.27 134108.924 -416639.19 282530.271        0.0
                          0.0        0.0 134969.975 -418730.78 283760.802 132463.443 -419293.44 286829.997 553700.752 -702491.58
                   148790.827 550748.118 -699169.46 148421.346 550748.118 -699169.47 148421.347 -32.866776 -25.875143 58.7419193
                   .130001E-3 -.46497E-3 .305891E-3        0.0   40.13634   2.346755   2.963986   9.270734   11.70907    .253136
                         440.    .048671    .021758    .355637    .205256   1.324019    .016903    .006087   7218.141   144.3628
                          1.0        0.0        1.0        0.0        0.0
 116500     .1165    198414.2 -429076.22 230662.024   198414.2 -429076.22 230662.024 198414.199 -429076.22 230662.024        0.0
                          0.0        0.0 196139.062 -429407.64 233268.579 194607.888 -428073.24 233465.353 625546.704 -662676.22
                   37129.5174 627490.423 -659738.25 32247.8242 627490.423 -659738.25 32247.8245 -47.643463 -53.555818 101.199281
                   .224469E-3 -.45463E-3 .230178E-3        0.0   40.13634   2.346755   2.963986   9.270734   11.70907    .253136
                         440.    .048671    .021758    .355637    .205256   1.324019    .016903    .006087   7218.141   144.3628
                          1.0        0.0        1.0        0.0        0.0
 117000      .117  252656.324 -427027.07 174370.745 252656.324 -427027.07 174370.745 252656.324 -427027.07 174370.745        0.0
                          0.0        0.0 250208.499 -427697.91 177489.413 251960.441 -426312.46 174352.016 677906.412 -605187.33
                   -72719.086 679683.394 -601397.81 -78285.579 679683.394 -601397.81 -78285.579 -24.845852 -36.276356 61.1222069
                   .269871E-3 -.43733E-3 .196531E-3        0.0   40.13634   2.346755   2.963986   9.270734   11.70907    .253136
                         440.    .048671    .021758    .355637    .205256   1.324019    .016903    .006087   7218.141   144.3628
                          1.0        0.0        1.0        0.0        0.0
 117500     .1175  302618.469 -410863.16 108244.696 302618.469 -410863.16 108244.696 302618.469 -410863.16 108244.696        0.0
                          0.0        0.0 303085.411 -412478.89 109393.483 303108.891 -414054.45 110945.554 715564.304 -521872.38
                   -193691.93 713481.633 -519107.86 -194373.77 713481.633 -519107.86 -194373.77 -38.834865 -61.093469 99.9283334
                   .304149E-3 -.41015E-3  .12055E-3        0.0   40.13634   2.346755   2.963986   9.270734   11.70907    .253136
                         440.    .048671    .021758    .355637    .205256   1.324019    .016903    .006087   7218.141   144.3628
                          1.0        0.0        1.0        0.0        0.0
 118000      .118  342595.376 -390037.79 47442.4107 342595.376 -390037.79 47442.4107 342595.376 -390037.79 47442.4108        0.0
                          0.0        0.0  339855.23 -391044.14 51188.9135 346793.795 -391601.04 44807.2447 730899.374 -442233.06
                   -288666.32 732633.162  -437480.2 -295152.96 732633.162  -437480.2 -295152.96  -24.25413 -47.026676 71.2808052
                   .388408E-3 -.39499E-3 .501946E-4        0.0   40.13634   2.346755   2.963986   9.270734   11.70907    .253136
                         440.    .048671    .021758    .355637    .205256   1.324019    .016903    .006087   7218.141   144.3628
                          1.0        0.0        1.0        0.0        0.0
 118500     .1185   385169.86 -356057.95 -29111.905  385169.86 -356057.95 -29111.905  385169.86 -356057.96 -29111.905        0.0
                          0.0        0.0 383784.066 -356014.31 -27769.756 381939.485 -359505.12 -22434.368 739798.377 -328244.55
                   -411553.82 741227.815 -326946.05 -414281.77 741227.815 -326946.05 -414281.77 -29.574172 -60.581381 90.1555514
                   .402598E-3 -.37032E-3 -.32246E-4        0.0   40.13634   2.346755   2.963986   9.270734   11.70907    .253136
                         440.    .048671    .021758    .355637    .205256   1.324019    .016903    .006087   7218.141   144.3628
                          1.0        0.0        1.0        0.0        0.0
 119000      .119  407047.473  -319801.4 -87246.071 407047.473  -319801.4 -87246.071 407047.473  -319801.4  -87246.07        0.0
                          0.0        0.0 405983.138 -322420.16 -83562.981 407680.557 -318556.98 -89123.572 728403.295 -238857.18
                   -489546.12 726848.875 -232555.33 -494293.54 726848.875 -232555.33 -494293.54 -20.746667 -59.474095 80.2207596
                   .427081E-3 -.32339E-3 -.89116E-4        0.0   40.13634   2.346755   2.963986   9.270734   11.70907    .253136
                         440.    .048671    .021758    .355637    .205256   1.324019    .016903    .006087   7218.141   144.3628
                          1.0        0.0        1.0        0.0        0.0
 119500     .1195  428973.691 -269759.97 -159213.72 428973.691 -269759.97 -159213.72 428973.691 -269759.97 -159213.72        0.0
                          0.0        0.0 427626.981 -269607.09 -158019.89  423383.18 -269764.92 -153618.26 697234.074 -111587.21
                   -585646.87 698733.663 -110546.25 -588187.41 698733.663 -110546.25 -588187.41 -13.373812 -60.619571 73.9933812
                   .465285E-3 -.26335E-3 -.17287E-3        0.0   40.13634   2.346755   2.963986   9.270734   11.70907    .253136
                         440.    .048671    .021758    .355637    .205256   1.324019    .016903    .006087   7218.141   144.3628
                          1.0        0.0        1.0        0.0        0.0
  % % % % % %   Suspended simulation;  plot data space exhausted;  SPY SPACE is required.   LIMBUF =  840000.
  % % % % % %   Suspended simulation;  plot data space exhausted;  SPY SPACE is required.   LIMBUF =  840000.
  +++  Time-sharing disabled.   Send  user-keyed interrupt to silence alarm.
   Current values.  INDBUF  INDBEG  LIMBUF  MFLUSH  NUMDCD  KCARD1  KCARD2
                    839994      50  840000    1007     230       1     231
Plot timespan now in memory (in sec) = 1.04985997E-01   1.19985000E-01
   ++++  Begin plot-data copy from memory to disk.   MFLUSH, INDBUF, N4, Tbeg,  Tend = 1008  839994       1  -1.00000E+00
1.00000E+19
 120000       .12  425166.377 -214310.28 -210856.09 425166.377 -214310.28 -210856.09 425166.377 -214310.28 -210856.09        0.0
                          0.0        0.0 422263.457  -215605.4 -206658.05 428660.705 -214330.35 -214330.35 637868.859 -8947.3479
                   -628921.51 639476.661 -3454.1913 -636022.47 639476.661 -3454.1916 -636022.47 -15.181806  -72.08247 87.2642738
                   .491581E-3 -.23252E-3    -.23E-3        0.0   40.13634   2.346755   2.963986   9.270734   11.70907    .253136
                         440.    .048671    .021758    .355637    .205256   1.324019    .016903    .006087   7218.141   144.3628
                          1.0        0.0        1.0        0.0        0.0

Extrema of output variables follow.   Order and column positioning are the same as for the preceding time-step loop output.
Variable maxima :  445920.899 444911.943 450349.703 445920.899 444911.943 450349.703 445920.899 444911.943 450349.703        0.0
                          0.0        0.0  453667.09 446478.926 460217.683 428660.705 428660.703 428660.703 750790.608 804749.303
                   788088.037  751911.12 786662.023  773804.81  751911.12 786662.023  773804.81 67.4330689 516.620022 290.895238
                   .515163E-3 .516055E-3 .520229E-3        0.0   40.13634   2.346755   2.963986   9.270734   11.70907    .253136
                         440.    .048671    .021758    .355637    .205256   1.324019    .016903    .006087   7218.141   144.3628
                          1.0        0.0        1.0        0.0        0.0
Times of maxima :     .059435    .066186    .073341    .059435    .066186    .073341    .059435    .066186    .073341        0.0
                          0.0        0.0    .059565    .066315    .073422        0.0    .006667    .113333    .057979    .065084
                       .07118     .05811    .064986    .071306     .05811    .064986    .071306    .063665    .048919    .056461
                      .059696    .066194    .073543        0.0        0.0        0.0        0.0        0.0        0.0        0.0
                          0.0        0.0        0.0        0.0        0.0        0.0        0.0        0.0        0.0        0.0
                          0.0        0.0        0.0        0.0        0.0
Variable minima :  -448423.85 -453931.25 -457066.94 -448423.85 -453931.25 -457066.94 -490660.74 -453931.25 -457066.94        0.0
                          0.0        0.0  -448521.3 -459778.11 -468407.21 -428660.71  -428660.7  -428660.7 -760449.36 -776944.49
                   -810543.27 -759962.71 -768796.08 -795411.86 -890409.66 -768796.08 -795411.86 -619.80046 -172.75991 -71.600905
                   -.51046E-3 -.52589E-3 -.52938E-3        0.0   40.13634   2.346755   2.963986   9.270734   11.70907    .253136
                         440.    .048671    .021758    .355637    .205256   1.324019    .016903    .006087   7218.141   144.3628
                          1.0        0.0        1.0        0.0        0.0
Times of minima :     .049775    .056787    .062882    .049775    .056787    .062882    .049001    .056787    .062882        0.0
                          0.0        0.0    .049905    .056663    .062837        .01    .016667    .103333    .049392    .074474
                      .061782    .049517    .074601    .061673    .048997    .074601    .061673    .048938    .059772    .065879
                      .070005    .056788    .062967        0.0        0.0        0.0        0.0        0.0        0.0        0.0
                          0.0        0.0        0.0        0.0        0.0        0.0        0.0        0.0        0.0        0.0
                          0.0        0.0        0.0        0.0        0.0

Blank card terminating all plot cards.            |BLANK PLOT

Memory storage figures for the preceding, now-completed data case.  -------------------------------  Present   Program
A value of  "-9999"  indicates that no figure is available.         28-Feb-22  19:04:48              figure     limit  (name)
     Size List 1.   Number of electric network nodes.                                                   37      6000  (LBUS)
     Size List 2.   Number of electric network branches.                                                39     10000  (LBRNCH)
     Size List 3.   Number of data values in R, L, C tables.                                            45    192000  (LDATA)
     Size List 4.   Number of electric network sources.                                                  3       900  (LEXCT)
     Size List 5.   Storage for [Y] and triangularized [Y].   No. times =    3     Factors =    66     189    420000  (LYMAT)
     Size List 6.   Number of entries in switch table.                  No. flops = 18                  21      1200  (LSWTCH)
     Size List 7.   Number of distinct ALPHANUMERIC data names plus program SPY variables.              25     15000  (LSIZE7)
     Size List 8.   History points of distributed lines.                                               475    120000  (LPAST)
     Size List 9.   Number of nonlinear elements.                                                        0      2250  (LNONL)
     Size List 10.  Points of nonlinear characteristics.                                                 0      3800  (LCHAR)
     Size List 11.  Number of Type-59 S.M. outputs.                                                      0       720  (LSMOUT)
     Size List 12.  Total number of EMTP output variables.                                              55      2000  (LSIZ12)
     Size List 13.  Working space for batch/SPY plotting.                                            -9999     72800  (LSIZ13)
     Size List 14.  S.M./U.M. connections to TACS.                                                   -9999       510  (LBSTAC)
     Size List 15.  Character storage in bytes for MODELS.                                            3298     90000  (LCTACS)
     Size List 16.  Total number of Type-59 S.M. masses.                                                 0       800  (LIMASS)
     Size List 17.  Number of Type-59 Synchronous machines.                                              0        90  (LSYN)
     Size List 18.  Branch and switch power/energy outputs.                                              0       254  (MAXPE)
     Size List 19.  Total floating-point TACS table space.                                              23    120000  (LTACST)
     Size List 20.  Non-copied recursive convolution data.                                               0    100000  (LFSEM)
     Size List 21.  Total modal/phase [T] matrix storage.                                                9      3000  (LFD)
     Size List 22.  Total recursive convolution history.                                                 0     15000  (LHIST)
     Size List 23.  Giant vectors for renumbering, phasors;  also extrema accumulation.                  93    192000  (LSIZ23)
     Size List 24.  Peak phases of compensation for data.                                                0       120  (LCOMP)
     Size List 25.  Total table space for all U.M usage.                                             -9999     45000  (LSPCUM)
     Size List 26.  Square of max number of coupled phases.                                              9    260000  (LSIZ26)
     Size List 27.  Maximum number of MODELS top variables.                                             44       600  (LSIZ27)
     Size List 28.  MODELS.  Total work space is divided into INTEGER and REAL.  1st, REAL:           1780    210000  (LRTACS)
                             Second  and last,  statistics for INTEGER work space.                    6838         0  (LITACS)
     Size List 29.  RAM disk used by "TAPSAV" table saving (limit is "LABCOM" size LTLABL).          -9999       600  (LSIZ29)
     Size List 30.  Taku Noda frequency-dependent circuits.                                              0        19  (LSIZ30)
Timing figures characterizing central processor (CP) solution speed.  ----------------------------   CP sec  Wait sec  Real sec
     Data input time (through blank card ending branches) ....                                       0.031     0.000     0.031
     Node renumbering and phasor solution  ....                                                      0.031     0.000     0.031
     After phasor solution, but before time-step loop  ....                                          0.000     0.000     0.000
     Integration of equations (time-step loop)  ....                                                 1.047     0.000     1.047
     Plotting or STATISTICS termination overlays ....                                                0.000     0.000     0.000
                                                                                                    ---------------------------
                                                                                          Totals      1.109     0.000     1.109

