   ---   236   cards of disk file read into card cache cells  1   onward.
 Comment card is ignored.      |C   LBUS  LBRNCH   LDATA   LEXCT   LYMAT  LSWTCH
 Limit CIDEAL cards =   200    |CARDS        200 { Limit of CIDEAL will be 2 mor
 1st card (Lists  1-10).       |    6000   10000  192000     900  420000    120
 Comment card is ignored.      |C LSMOUT  LSIZ12  LSIZ13  LBSTAC  LCTACS  LIMASS
 2nd card (Lists 11-20).       |     720    2000   72800     510   90000     80
 Comment card is ignored.      |C    LFD   LHIST  LSIZ23   NCOMP  LSPCUM  LSIZ26
 3rd card (Lists 21-30).       |    3000   15000  192000     120   45000  26000
 4th card (Lists 31-32).       |     200     300     { Optional card for Lists
 Comment card is ignored.      |C  LWORK  LMARTI
 Supplemental offsets.         |  840000     742
 <===> Done with  "/"-card sorting by data class.    Remember that the source file appears different from interpreted input data.
Alternative Transients Program (ATP),  GNU Linux or DOS.  All rights reserved by Can/Am user group of Portland, Oregon, USA.
 Date (dd-mth-yy) and time of day (hh.mm.ss) = 28-Feb-22  20:02:19   Name of disk plot file is  p\bdfinalisima\energizacion2306.pl4
Consult the 860-page ATP Rule Book of the Can/Am EMTP User Group in Portland,  Oregon, USA.  Source code date is 12 August 2008.
Total size of LABCOM tables = 10913436 INTEGER words.  31 VARDIM  List Sizes follow:  6002  10K  192K  900  420K  1200  15K
  120K  2250  3800  720  2K  72800  510  90K  800  90  254  120K  100K  3K  15K  192K  120  45K  260K  600  210K  1100  60  200
--------------------------------------------------+--------------------------------------------------------------------------------
Descriptive interpretation of input data cards.   |  Input data card images are shown below, all 80 columns, character by character
                                                  0         1         2         3         4         5         6         7         8
                                                  012345678901234567890123456789012345678901234567890123456789012345678901234567890
--------------------------------------------------+--------------------------------------------------------------------------------
Comment card.   NUMDCD = 1.                       |C data:D:\ATP\BDFINALISIMA\ENERGIZACION2306.ATP
Marker card preceding new EMTP data case.         |BEGIN NEW DATA CASE
Comment card.   NUMDCD = 3.                       |C --------------------------------------------------------
Comment card.   NUMDCD = 4.                       |C Generated by ATPDRAW  febrero, lunes 28, 2022
Comment card.   NUMDCD = 5.                       |C A Bonneville Power Administration program
Comment card.   NUMDCD = 6.                       |C by H. K. Høidalen at SEfAS/NTNU - NORWAY 1994-2016
Comment card.   NUMDCD = 7.                       |C --------------------------------------------------------
Comment card.   NUMDCD = 8.                       |C  dT  >< Tmax >< Xopt >< Copt ><Epsiln>
Misc. data.     1.000E-06   1.200E-01   5.000E+01 |   1.E-6     .12     50.
Misc. data.    500    1  0  1  1  0  0  0  0  0   |     500       1       0       1       1       0       0       0       0
  ///  Warning.  Nonzero XOPT or COPT differs from the power frequency of  6.00000000E+01  Hz.   Did the user really want this?
No TACS data,  but MODELS data begins (next).     |MODELS
      Another ordinary MODELS data card.          |OUTPUT
      Another ordinary MODELS data card.          |  AnVol
      Another ordinary MODELS data card.          |  LONG
      Another ordinary MODELS data card.          |  R0F
      Another ordinary MODELS data card.          |  R1F
      Another ordinary MODELS data card.          |  X0F
      Another ordinary MODELS data card.          |  X1F
      Another ordinary MODELS data card.          |  RDIVX
      Another ordinary MODELS data card.          |  RINSER
      Another ordinary MODELS data card.          |  CLOSE1
      Another ordinary MODELS data card.          |  RPpos
      Another ordinary MODELS data card.          |  RPcero
      Another ordinary MODELS data card.          |  LPpos
      Another ordinary MODELS data card.          |  LPcero
      Another ordinary MODELS data card.          |  CPpos
      Another ordinary MODELS data card.          |  CPcero
      Another ordinary MODELS data card.          |  Xp
      Another ordinary MODELS data card.          |  CR
      Another ordinary MODELS data card.          |  SIMET
      Another ordinary MODELS data card.          |  ENC1
      Another ordinary MODELS data card.          |  ENC2
      Another ordinary MODELS data card.          |  ENC1AS
      Another ordinary MODELS data card.          |  ENC2AS
      Another ordinary MODELS data card.          |MODEL DEFAULT
      Another ordinary MODELS data card.          |DATA AnVol,LONG,R0F,R1F,X0F,X1F,RDIVX,RINSER,CLOSE1,RPpos,RPcero,LPpos,LPcero
      Another ordinary MODELS data card.          |OUTPUT o1,o2,o3, o4, o5, o6, o7, o8, o9, o10, o11, o12, o13
      Another ordinary MODELS data card.          |VAR o1,o2,o3, o4, o5, o6, o7, o8, o9, o10, o11, o12, o13
      Another ordinary MODELS data card.          |INIT
      Another ordinary MODELS data card.          |  o1:=AnVol
      Another ordinary MODELS data card.          |  o2:=LONG
      Another ordinary MODELS data card.          |  o3:=R0F
      Another ordinary MODELS data card.          |  o4:=R1F
      Another ordinary MODELS data card.          |  o5:=X0F
      Another ordinary MODELS data card.          |  O6:=X1F
      Another ordinary MODELS data card.          |  o7:=RDIVX
      Another ordinary MODELS data card.          |  o8:=RINSER
      Another ordinary MODELS data card.          |  o9:=CLOSE1
      Another ordinary MODELS data card.          |  o10:=RPpos
      Another ordinary MODELS data card.          |  o11:=RPcero
      Another ordinary MODELS data card.          |  o12:=LPpos
      Another ordinary MODELS data card.          |  o13:=LPcero
      Another ordinary MODELS data card.          |
      Another ordinary MODELS data card.          |ENDINIT
      Another ordinary MODELS data card.          |EXEC
      Another ordinary MODELS data card.          |ENDEXEC
      Another ordinary MODELS data card.          |ENDMODEL
      Another ordinary MODELS data card.          |MODEL DEFAULT1
      Another ordinary MODELS data card.          |DATA CPpos,CPcero,Xp,CR,SIMET,ENC1,ENC2,ENC1AS,ENC2AS
      Another ordinary MODELS data card.          |OUTPUT o1, o2, o3, o4, o5, o6, o7, o8, o9
      Another ordinary MODELS data card.          |VAR o1, o2, o3, o4, o5, o6, o7, o8, o9
      Another ordinary MODELS data card.          |INIT
      Another ordinary MODELS data card.          |  o1:=CPpos
      Another ordinary MODELS data card.          |  o2:=CPcero
      Another ordinary MODELS data card.          |  o3:=Xp
      Another ordinary MODELS data card.          |  o4:=CR
      Another ordinary MODELS data card.          |  o5:=SIMET
      Another ordinary MODELS data card.          |  o6:=ENC1
      Another ordinary MODELS data card.          |  o7:=ENC2
      Another ordinary MODELS data card.          |  o8:=ENC1AS
      Another ordinary MODELS data card.          |  o9:=ENC2AS
      Another ordinary MODELS data card.          |
      Another ordinary MODELS data card.          |ENDINIT
      Another ordinary MODELS data card.          |EXEC
      Another ordinary MODELS data card.          |ENDEXEC
      Another ordinary MODELS data card.          |ENDMODEL
      Another ordinary MODELS data card.          |USE DEFAULT AS DEFAULT
      Another ordinary MODELS data card.          |DATA
      Another ordinary MODELS data card.          |  AnVol:=      0.0
      Another ordinary MODELS data card.          |  LONG:= 288.1101
      Another ordinary MODELS data card.          |  R0F:=  1.72871
      Another ordinary MODELS data card.          |  R1F:= 1.645347
      Another ordinary MODELS data card.          |  X0F:= 11.30813
      Another ordinary MODELS data card.          |  X1F:= 10.76282
      Another ordinary MODELS data card.          |  RDIVX:= 0.152873
      Another ordinary MODELS data card.          |  RINSER:=    1.E-6
      Another ordinary MODELS data card.          |  CLOSE1:= 0.045228
      Another ordinary MODELS data card.          |  RPpos:= 0.017267
      Another ordinary MODELS data card.          |  RPcero:= 0.216459
      Another ordinary MODELS data card.          |  LPpos:= 0.324381
      Another ordinary MODELS data card.          |  LPcero:= 0.849833
      Another ordinary MODELS data card.          |OUTPUT
      Another ordinary MODELS data card.          |  AnVol:=o1
      Another ordinary MODELS data card.          |  LONG:=o2
      Another ordinary MODELS data card.          |  R0F:=o3
      Another ordinary MODELS data card.          |  R1F:=o4
      Another ordinary MODELS data card.          |  X0F:=o5
      Another ordinary MODELS data card.          |  X1F:=o6
      Another ordinary MODELS data card.          |  RDIVX:=o7
      Another ordinary MODELS data card.          |  RINSER:=o8
      Another ordinary MODELS data card.          |  CLOSE1:=o9
      Another ordinary MODELS data card.          |  RPpos:=o10
      Another ordinary MODELS data card.          |  RPcero:=o11
      Another ordinary MODELS data card.          |  LPpos:=o12
      Another ordinary MODELS data card.          |  LPcero:=o13
      Another ordinary MODELS data card.          |ENDUSE
      Another ordinary MODELS data card.          |USE DEFAULT1 AS DEF
      Another ordinary MODELS data card.          |DATA
      Another ordinary MODELS data card.          |  CPpos:= 0.012949
      Another ordinary MODELS data card.          |  CPcero:= 0.008054
      Another ordinary MODELS data card.          |  Xp:= 1312.652
      Another ordinary MODELS data card.          |  CR:= 26.25305
      Another ordinary MODELS data card.          |  SIMET:=      0.0
      Another ordinary MODELS data card.          |  ENC1:=      0.0
      Another ordinary MODELS data card.          |  ENC2:=      0.0
      Another ordinary MODELS data card.          |  ENC1AS:=       1.
      Another ordinary MODELS data card.          |  ENC2AS:=      0.0
      Another ordinary MODELS data card.          |OUTPUT
      Another ordinary MODELS data card.          |  CPpos:=o1
      Another ordinary MODELS data card.          |  CPcero:=o2
      Another ordinary MODELS data card.          |  Xp:=o3
      Another ordinary MODELS data card.          |  CR:=o4
      Another ordinary MODELS data card.          |  SIMET:=o5
      Another ordinary MODELS data card.          |  ENC1:=o6
      Another ordinary MODELS data card.          |  ENC2:=o7
      Another ordinary MODELS data card.          |  ENC1AS:=o8
      Another ordinary MODELS data card.          |  ENC2AS:=o9
      Another ordinary MODELS data card.          |ENDUSE
      Another ordinary MODELS data card.          |RECORD
      Another ordinary MODELS data card.          |  DEFAULT.o1 AS AnVOL
      Another ordinary MODELS data card.          |  DEFAULT.o2 AS LONG
      Another ordinary MODELS data card.          |  DEFAULT.o3 AS R0F
      Another ordinary MODELS data card.          |  DEFAULT.o4 AS R1F
      Another ordinary MODELS data card.          |  DEFAULT.o5 AS X0F
      Another ordinary MODELS data card.          |  DEFAULT.o6 AS X1F
      Another ordinary MODELS data card.          |  DEFAULT.o7 AS RDIVX
      Another ordinary MODELS data card.          |  DEFAULT.o8 AS RINSER
      Another ordinary MODELS data card.          |  DEFAULT.o9 AS CLOSE1
      Another ordinary MODELS data card.          |  DEFAULT.o10 AS RPpos
      Another ordinary MODELS data card.          |  DEFAULT.o11 AS RPcero
      Another ordinary MODELS data card.          |  DEFAULT.o12 AS LPpos
      Another ordinary MODELS data card.          |  DEFAULT.o13 AS LPcero
      Another ordinary MODELS data card.          |  DEF.o1 AS CPpos
      Another ordinary MODELS data card.          |  DEF.o2 AS CPcero
      Another ordinary MODELS data card.          |  DEF.o3 AS Xp
      Another ordinary MODELS data card.          |  DEF.o4 AS CR
      Another ordinary MODELS data card.          |  DEF.o5 AS SIMET
      Another ordinary MODELS data card.          |  DEF.o6 AS ENC1
      Another ordinary MODELS data card.          |  DEF.o7 AS ENC2
      Another ordinary MODELS data card.          |  DEF.o8 AS ENC1AS
      Another ordinary MODELS data card.          |  DEF.o9 AS ENC2AS
Termination of data for Laurent Dube`s MODELS.    |ENDMODELS
Comment card.   NUMDCD = 153.                     |C        1         2         3         4         5         6         7         8
Comment card.   NUMDCD = 154.                     |C 345678901234567890123456789012345678901234567890123456789012345678901234567890
Optional blank card follows last of MODELS data.  |BLANK MODELS
Comment card.   NUMDCD = 156.                     |C < n1 >< n2 ><ref1><ref2>< R  >< L  >< C  >
Comment card.   NUMDCD = 157.                     |C < n1 >< n2 ><ref1><ref2>< R  >< A  >< B  ><Leng><><>0
1st of coupled R-L.   1.72870E+00  3.59949E-02    |51IFUENASB1A              1.728711.308130207
2nd coil. 1.645E+00 3.426E-02 0.000E+00 0.000E+00 |52IFUENBSB1B              1.645310.762823016
Zca, Zcc= 2.780E-02 5.786E-04 1.673E+00 3.484E-02 |53IFUENCSB1C
Series R-L-C.   1.000E+09  0.000E+00  0.000E+00   |  SB1A                      1.E9                                               0
Series R-L-C.   1.000E+09  0.000E+00  0.000E+00   |  SB1B                      1.E9                                               0
Series R-L-C.   1.000E+09  0.000E+00  0.000E+00   |  SB1C                      1.E9                                               0
Series R-L-C.   2.625E+01  4.178E+00  0.000E+00   |  RSNSHA                  26.2531312.7                                         0
Series R-L-C.   2.625E+01  4.178E+00  0.000E+00   |  RSNSHB                  26.2531312.7                                         0
Series R-L-C.   2.625E+01  4.178E+00  0.000E+00   |  RSNSHC                  26.2531312.7                                         0
Series R-L-C.   1.000E+09  0.000E+00  0.000E+00   |  RSNNHA                    1.E9                                               0
Series R-L-C.   1.000E+09  0.000E+00  0.000E+00   |  RSNNHB                    1.E9                                               0
Series R-L-C.   1.000E+09  0.000E+00  0.000E+00   |  RSNNHC                    1.E9                                               0
Series R-L-C.   1.000E+09  0.000E+00  0.000E+00   |  SE2A                      1.E9                                               0
Series R-L-C.   1.000E+09  0.000E+00  0.000E+00   |  SE2B                      1.E9                                               0
Series R-L-C.   1.000E+09  0.000E+00  0.000E+00   |  SE2C                      1.E9                                               0
Series R-L-C.   2.500E+02  0.000E+00  3.000E-10   |  X0001B                    250.       .0003                                   0
Series R-L-C.   2.500E+02  0.000E+00  3.000E-10   |  X0002B                    250.       .0003                                   0
Series R-L-C.   1.000E-06  0.000E+00  0.000E+00   |  X0001ALN1A               1.E-6                                               0
Series R-L-C.   1.000E-06  0.000E+00  0.000E+00   |  SB1A  X0002A             1.E-6                                               0
Series R-L-C.   1.000E-06  0.000E+00  0.000E+00   |  X0001BLN1B               1.E-6                                               0
Series R-L-C.   1.000E-06  0.000E+00  0.000E+00   |  SB1B  X0002B             1.E-6                                               0
Series R-L-C.   1.000E-06  0.000E+00  0.000E+00   |  X0001CLN1C               1.E-6                                               0
Series R-L-C.   1.000E-06  0.000E+00  0.000E+00   |  SB1C  X0002C             1.E-6                                               0
Series R-L-C.   1.000E-06  0.000E+00  0.000E+00   |  XX0005X0002A             1.E-6                                               0
Series R-L-C.   1.000E-06  0.000E+00  0.000E+00   |  XX0003X0002B             1.E-6                                               0
Series R-L-C.   1.000E-06  0.000E+00  0.000E+00   |  XX0004X0002C             1.E-6                                               0
Series R-L-C.   2.500E+02  0.000E+00  3.000E-10   |  X0001A                    250.       .0003                                   0
Series R-L-C.   1.000E+06  0.000E+00  0.000E+00   |  X0001AX0002A              1.E6                                               0
Series R-L-C.   1.000E+06  0.000E+00  0.000E+00   |  X0001BX0002B              1.E6                                               0
Series R-L-C.   1.000E+06  0.000E+00  0.000E+00   |  X0001CX0002C              1.E6                                               0
Series R-L-C.   2.500E+02  0.000E+00  3.000E-10   |  X0002C                    250.       .0003                                   0
Series R-L-C.   2.500E+02  0.000E+00  3.000E-10   |  X0002A                    250.       .0003                                   0
Series R-L-C.   2.500E+02  0.000E+00  3.000E-10   |  X0001C                    250.       .0003                                   0
Series R-L-C.   1.250E+02  0.000E+00  6.000E-10   |  X0001AX0002A              125.       .0006                                   0
Series R-L-C.   1.250E+02  0.000E+00  6.000E-10   |  X0001BX0002B              125.       .0006                                   0
Series R-L-C.   1.250E+02  0.000E+00  6.000E-10   |  X0001CX0002C              125.       .0006                                   0
 2.165E-01 8.498E-01 8.050E-03 5.797E+02 1.344E-03|-1LN1A  VFF2A             .21646.84983.00805288.11 0 0                         0
 1.727E-02 3.244E-01 1.295E-02 2.824E+02 1.054E-03|-2LN1B  VFF2B             .01727.32438.01295288.11 0 0                         0
3rd or later transposed distributed phase.        |-3LN1C  VFF2C                                                                  0
Blank card ending branches.  IBR, NTOT = 39  31   |BLANK BRANCH
Comment card.   NUMDCD = 198.                     |C < n 1>< n 2>< Tclose ><Top/Tde ><   Ie   ><Vf/CLOP ><  type  >
Switch.  -1.00E+00  1.00E+01  0.00E+00  0.00E+00  |  LN1A  COMPA        -1.       10.                                             0
Switch.  -1.00E+00  1.00E+01  0.00E+00  0.00E+00  |  LN1B  COMPB        -1.       10.                                             0
Switch.  -1.00E+00  1.00E+01  0.00E+00  0.00E+00  |  LN1C  COMPC        -1.       10.                                             0
Switch.  -1.00E+00  1.00E+01  0.00E+00  0.00E+00  |  VFF2A RSNNHA       -1.       10.                                             0
Switch.  -1.00E+00  1.00E+01  0.00E+00  0.00E+00  |  VFF2B RSNNHB       -1.       10.                                             0
Switch.  -1.00E+00  1.00E+01  0.00E+00  0.00E+00  |  VFF2C RSNNHC       -1.       10.                                             0
Switch.   2.00E+00 -1.00E+00  0.00E+00  0.00E+00  |  VFF2A SE2A          2.       -1.                                             0
Switch.   2.00E+00 -1.00E+00  0.00E+00  0.00E+00  |  VFF2B SE2B          2.       -1.                                             0
Switch.   2.00E+00 -1.00E+00  0.00E+00  0.00E+00  |  VFF2C SE2C          2.       -1.                                             0
Switch.   4.52E-02  1.00E+03  0.00E+00  0.00E+00  |  X0001BXX0003.045227901      1.E3                                             0
Switch.   4.52E-02  1.00E+03  0.00E+00  0.00E+00  |  X0001CXX0004.045227901      1.E3                                             0
Switch.   5.27E-02  1.00E+03  0.00E+00  0.00E+00  |  XX0005X0002A.052727901      1.E3                                             0
Switch.   5.27E-02  1.00E+03  0.00E+00  0.00E+00  |  XX0003X0002B.052727901      1.E3                                             0
Switch.   5.27E-02  1.00E+03  0.00E+00  0.00E+00  |  XX0004X0002C.052727901      1.E3                                             0
Switch.   4.52E-02  1.00E+03  0.00E+00  0.00E+00  |  X0001AXX0005.045227901      1.E3                                             0
Permanently-closed switch used for metering.      |  VFUENAIFUENA                                        MEASURING                1
Permanently-closed switch used for metering.      |  VFUENBIFUENB                                        MEASURING                1
Permanently-closed switch used for metering.      |  VFUENCIFUENC                                        MEASURING                1
Permanently-closed switch used for metering.      |  COMPA RSNSHA                                        MEASURING                1
Permanently-closed switch used for metering.      |  COMPB RSNSHB                                        MEASURING                1
Permanently-closed switch used for metering.      |  COMPC RSNSHC                                        MEASURING                1
Blank card ending switches.   KSWTCH = 21.        |BLANK SWITCH
Comment card.   NUMDCD = 221.                     |C < n 1><>< Ampl.  >< Freq.  ><Phase/T0><   A1   ><   T1   >< TSTART >< TSTOP  >
Source.   4.29E+05  5.00E+01  0.00E+00 -1.00E+00  |14VFUENA  428660.705       50.                                     -1.      100.
Source.   4.29E+05  5.00E+01 -1.20E+02 -1.00E+00  |14VFUENB  428660.705       50.     -120.                           -1.      100.
Source.   4.29E+05  5.00E+01 -2.40E+02 -1.00E+00  |14VFUENC  428660.705       50.     -240.                           -1.      100.
Blank card ends electric sources.  KCONST = 3     |BLANK SOURCE
Pi-equivalent branches of distributed circuits are added to the table of List Size 3 between indices  40   and  45.

Sinusoidal steady-state phasor solution, branch by branch.   All flows are away from a bus,  and the real part,  magnitude,  or  "P"
is printed above the imaginary part,  the angle,  or  "Q".   The first solution frequency  =  5.00000000E+01  Hertz.
  Bus K                        Phasor  node  voltage              Phasor  branch  current               Power flow       Power loss
             Bus M         Rectangular            Polar          Rectangular            Polar            P  and  Q        P  and  Q

 IFUENA                    428660.705       428660.705      .42870818650351  .44575329697158      91885.176732934   .1634572658489
                                  0.0              0.0      .12208723350909       15.8958580      -26166.99979375        1.0692650

            SB1A      428661.31364971  428661.31367675      -.4287081865035  .44575329697158      -91885.01327567
                      -4.814980462138       -0.0006436      -.1220872335091     -164.1041420      26168.069058703

 IFUENB                  -214330.3525       428660.705      -.1086234475506  .44575329697361      91885.176733048  .16345726585052
                      -371231.0601341     -120.0000000      -.4323157970802     -104.1041420      -26166.99979494        1.0692650

            SB1B      -214334.8267203  428661.31367675      .10862344755058  .44575329697361      -91885.01327578
                        -371229.17975     -120.0006436      .43231579708018       75.8958580      26168.069059892

 IFUENC                  -214330.3525       428660.705      -.3200847389616  .44575329697701      91885.176733269  .16345726585219
                      371231.06013415      120.0000000      .31022856356205      135.8958580      -26166.99979682        1.0692650

            SB1C      -214326.4869295  428661.31367675      .32008473896157  .44575329697701        -91885.013276
                      371233.99473049      119.9993564      -.3102285635621      -44.1041420      26168.069061772

 SB1A                 428661.31364971  428661.31367675      .42866131365E-3  .42866131368E-3      91.875260921538  91.875260921538
                      -4.814980462138       -0.0006436      -.4814980462E-8       -0.0006436      -.174700545E-19        0.0000000

            TERRA                 0.0              0.0      -.4286613136E-3  .42866131368E-3                  0.0
                                  0.0              0.0      .48149804621E-8      179.9993564                  0.0

 SB1B                 -214334.8267203  428661.31367675      -.2143348267E-3  .42866131368E-3      91.875260921538  91.875260921538
                        -371229.17975     -120.0006436      -.3712291798E-3     -120.0006436      .8881784197E-15        0.0000000

            TERRA                 0.0              0.0      .21433482672E-3  .42866131368E-3                  0.0
                                  0.0              0.0      .37122917975E-3       59.9993564                  0.0

 SB1C                 -214326.4869295  428661.31367675      -.2143264869E-3  .42866131368E-3      91.875260921539  91.875260921539
                      371233.99473049      119.9993564      .37123399473E-3      119.9993564      .6175615574E-15        0.0000000

            TERRA                 0.0              0.0      .21432648693E-3  .42866131368E-3                  0.0
                                  0.0              0.0      -.3712339947E-3      -60.0006436                  0.0

 RSNSHA               216.18914361282    956.422940708      -.7061587599565  .72844650571261      6.9653712923319  6.9653712923319
                      -931.6689839726      -76.9360015      -.1788130795597     -165.7902823      348.28183047439      348.2818305

            TERRA                 0.0              0.0       .7061587599565  .72844650571261                  0.0
                                  0.0              0.0      .17881307955965       14.2097177                  0.0

 RSNSHB               -914.9435798447  956.42294070798      .19822271055068   .7284465057126      6.9653712923317  6.9653712923317
                       278.6092015952      163.0639985      .70095796500706       74.2097177      348.28183047438      348.2818305

            TERRA                 0.0              0.0      -.1982227105507   .7284465057126                  0.0
                                  0.0              0.0      -.7009579650071     -105.7902823                  0.0

 RSNSHC                698.7544362319  956.42294070801      .50793604940583  .72844650571262      6.9653712923321  6.9653712923321
                      653.05978237738       43.0639985      -.5221448854474      -45.7902823       348.2818304744      348.2818305

            TERRA                 0.0              0.0      -.5079360494058  .72844650571262                  0.0
                                  0.0              0.0      .52214488544744      134.2097177                  0.0

 RSNNHA               225.61161750086  1011.3073613496       .2256116175E-6  .10113073613E-5      .51137128956E-3  .51137128956E-3
                      -985.8204588913      -77.1094661      -.9858204589E-6      -77.1094661      .5327043145E-20        0.0000000

            TERRA                 0.0              0.0      -.2256116175E-6  .10113073613E-5                  0.0
                                  0.0              0.0      .98582045889E-6      102.8905339                  0.0

 RSNNHB               -966.5513697207  1011.3073613496      -.9665513697E-6  .10113073613E-5      .51137128956E-3  .51137128956E-3
                      297.52483730101      162.8905339       .2975248373E-6      162.8905339      -.629980755E-20        0.0000000

            TERRA                 0.0              0.0      .96655136972E-6  .10113073613E-5                  0.0
                                  0.0              0.0      -.2975248373E-6      -17.1094661                  0.0

 RSNNHC               740.93975221987  1011.3073613496      .74093975222E-6  .10113073613E-5      .51137128956E-3  .51137128956E-3
                      688.29562159026       42.8905339      .68829562159E-6       42.8905339      -.113555354E-19        0.0000000

            TERRA                 0.0              0.0      -.7409397522E-6  .10113073613E-5                  0.0
                                  0.0              0.0      -.6882956216E-6     -137.1094661                  0.0

 X0001B                -914.943579988  956.42294072522      -.2626033035E-4  .90140738504E-4      .10156690923E-5  .10156690923E-5
                      278.60920118355      163.0639985      -.8623078214E-4     -106.9373515      -.0431063350877       -0.0431063

            TERRA                 0.0              0.0      .26260330355E-4  .90140738504E-4                  0.0
                                  0.0              0.0      .86230782136E-4       73.0626485                  0.0

 X0002B               -214334.8267201  428661.31367632      .03498704993257   .0404003770065      .20402380778348  .20402380778348
                      -371229.1797496     -120.0006436      -.0202014058739      -30.0019936      -8659.039337908    -8659.0393379

            TERRA                 0.0              0.0      -.0349870499326   .0404003770065                  0.0
                                  0.0              0.0      .02020140587392      149.9980064                  0.0

 X0001A                 216.189144041  956.42294072523      .42818450651794  .43590295527272      8.2413553683738  .95005693208E-7
                      -931.6689838909      -76.9360015      .08166648512997       10.7981824      -208.2908158112        0.0000000

            LN1A      216.18914361282    956.422940708      -.4281845065179  .43590295527272      -8.241355273368
                      -931.6689839726      -76.9360015        -.08166648513     -169.2018176      208.29081581124

 SB1A                 428661.31364971  428661.31367675      .42823376134038  .44529703351568      91783.329418828  .99144720878E-7
                      -4.814980462138       -0.0006436      .12208723809692       15.9125778      -26168.06889984              0.0

            X0002A    428661.31364928  428661.31367632      -.4282337613404  .44529703351568      -91783.32941873
                      -4.814980584226       -0.0006436      -.1220872380969     -164.0874222      26168.068899843

 X0001B                -914.943579988  956.42294072522      -.1433669467588  .43590294455605      8.2413287455086  .95005688535E-7
                      278.60920118355      163.0639985      -.4116519107811     -109.2018104      -208.2908117358              0.0

            LN1B      -914.9435798447  956.42294070798      .14336694675876  .43590294455605      -8.241328650503
                       278.6092015952      163.0639985      .41165191078107       70.7981896      208.29081173577

 SB1B                 -214334.8267203  428661.31367675      -.1084117684513  .44529928202007      91785.306824361  .99145715637E-7
                        -371229.17975     -120.0006436      -.4319008439779     -104.0907373      -26162.89033845        0.0000000

            X0002B    -214334.8267201  428661.31367632      .10841176845133  .44529928202007      -91785.30682426
                      -371229.1797496     -120.0006436      .43190084397793       75.9092627      26162.890338451

 X0001C               698.75443594709  956.42294072524       -.284817474494  .43590298511746      8.2413868782478  .95005706219E-7
                      653.05978270737       43.0639985      .32998548249452      130.7981738      -208.2908288478        0.0000000

            LN1C       698.7544362319  956.42294070801      .28481747449405  .43590298511746      -8.241386783242
                      653.05978237738       43.0639985      -.3299854824945      -49.2018262      208.29082884776

 SB1C                 -214326.4869295  428661.31367675      -.3198510967195  .44531468073492      91787.736153572  .99152586586E-7
                      371233.99473049      119.9993564      .30983937904239      135.9108933      -26166.40736577        0.0000000

            X0002C    -214326.4869291  428661.31367632       .3198510967195  .44531468073492      -91787.73615347
                      371233.99473018      119.9993564      -.3098393790424      -44.0891067      26166.407365775

 XX0005               428661.31364928  428661.31367632                  0.0              0.0                  0.0              0.0
                      -4.814980584226       -0.0006436                  0.0              0.0                  0.0              0.0

            X0002A    428661.31364928  428661.31367632                  0.0              0.0                  0.0
                      -4.814980584226       -0.0006436                  0.0              0.0                  0.0

 XX0003               -214334.8267201  428661.31367632                  0.0              0.0                  0.0              0.0
                      -371229.1797496     -120.0006436                  0.0              0.0                  0.0              0.0

            X0002B    -214334.8267201  428661.31367632                  0.0              0.0                  0.0
                      -371229.1797496     -120.0006436                  0.0              0.0                  0.0

 XX0004               -214326.4869291  428661.31367632                  0.0              0.0                  0.0              0.0
                      371233.99473018      119.9993564                  0.0              0.0                  0.0              0.0

            X0002C    -214326.4869291  428661.31367632                  0.0              0.0                  0.0
                      371233.99473018      119.9993564                  0.0              0.0                  0.0

 X0001A                 216.189144041  956.42294072523      .87808213095E-4  .90140738504E-4      .10156690923E-5  .10156690923E-5
                      -931.6689838909      -76.9360015      .20373277869E-4       13.0626485      -.0431063350877       -0.0431063

            TERRA                 0.0              0.0       -.878082131E-4  .90140738504E-4                  0.0
                                  0.0              0.0      -.2037327787E-4     -166.9373515                  0.0

 X0001A                 216.189144041  956.42294072523      -.4284451245052  .42844612703425      -45.88083180393  91783.041885326
                      -931.6689838909      -76.9360015      -.9268540033E-3     -179.8760524      199.68470478722        0.0000000

            X0002A    428661.31364928  428661.31367632      .42844512450524  .42844612703425       91828.92271713
                      -4.814980584226       -0.0006436      .92685400331E-3        0.1239476      -199.6847047872

 X0001B                -914.943579988  956.42294072522      .21341988314016  .42844612703425      -45.88083180392  91783.041885326
                      278.60920118355      163.0639985      .37150778895078       60.1239476      199.68470478722        0.0000000

            X0002B    -214334.8267201  428661.31367632      -.2134198831402  .42844612703425       91828.92271713
                      -371229.1797496     -120.0006436      -.3715077889508     -119.8760524      -199.6847047872

 X0001C               698.75443594709  956.42294072524      .21502524136508  .42844612703425      -45.88083180392  91783.041885326
                      653.05978270737       43.0639985      -.3705809349475      -59.8760524      199.68470478722        0.0000000

            X0002C    -214326.4869291  428661.31367632      -.2150252413651  .42844612703425       91828.92271713
                      371233.99473018      119.9993564      .37058093494747      120.1239476      -199.6847047872

 X0002C               -214326.4869291  428661.31367632      -.0349884556453   .0404003770065      .20402380778335  .20402380778335
                      371233.99473018      119.9993564      -.0201989711081     -150.0019936      -8659.039337908    -8659.0393379

            TERRA                 0.0              0.0      .03498845564526   .0404003770065                  0.0
                                  0.0              0.0      .02019897110812       29.9980064                  0.0

 X0002A               428661.31364928  428661.31367632      .14057126854E-5   .0404003770065      .20402380778338  .20402380778338
                      -4.814980584226       -0.0006436      .04040037698204       89.9980064      -8659.039337908    -8659.0393379

            TERRA                 0.0              0.0      -.1405712685E-5   .0404003770065                  0.0
                                  0.0              0.0       -.040400376982      -90.0019936                  0.0

 X0001C               698.75443594709  956.42294072524      -.6154788274E-4  .90140738504E-4      .10156690923E-5  .10156690923E-5
                      653.05978270737       43.0639985      .65857504267E-4      133.0626485      -.0431063350877       -0.0431063

            TERRA                 0.0              0.0       .6154788274E-4  .90140738504E-4                  0.0
                                  0.0              0.0      -.6585750427E-4      -46.9373515                  0.0

 X0001A                 216.189144041  956.42294072523      .17280500082E-3  .08076019228657      37.639476303183  .40763804113525
                      -931.6689838909      -76.9360015      -.0807600074083      -89.8774024      8.6492199074149   -17300.6957971

            X0002A    428661.31364928  428661.31367632      -.1728050008E-3  .08076019228657      -37.23183826205
                      -4.814980584226       -0.0006436      .08076000740834       90.1225976      -17309.34501697

 X0001B                -914.943579988  956.42294072522      -.0700266205259  .08076019228657      37.639476303183  .40763804113598
                      278.60920118355      163.0639985      .04023035018356      150.1225976      8.6492199074139   -17300.6957971

            X0002B    -214334.8267201  428661.31367632      .07002662052585  .08076019228657      -37.23183826205
                      -371229.1797496     -120.0006436      -.0402303501836      -29.8774024      -17309.34501697

 X0001C               698.75443594709  956.42294072524      .06985381552503  .08076019228657      37.639476303184   .4076380411351
                      653.05978270737       43.0639985      .04052965722478       30.1225976      8.6492199074141   -17300.6957971

            X0002C    -214326.4869291  428661.31367632       -.069853815525  .08076019228657      -37.23183826205
                      371233.99473018      119.9993564      -.0405296572248     -149.8774024      -17309.34501697

 LN1A                 216.18914361282    956.422940708      1.1343432802185  1.1638660844027      1.2760020761188  1.2754907048293
                      -931.6689839726      -76.9360015      .26047952903441       12.9326421      -556.5726488339     -556.5726488

            VFF2A     225.61161750086  1011.3073613496      -.2256116185E-6  .10113073613E-5      -.5113712895E-3
                      -985.8204588913      -77.1094661      .98582045858E-6      102.8905340      .5216078933E-12

 LN1B                 -914.9435798447  956.42294070798      -.3415897507996  1.1638660844026      1.2760020761142  1.2754907048247
                       278.6092015952      163.0639985      -1.112609861799     -107.0673579      -556.5726488339     -556.5726488

            VFF2B     -966.5513697207  1011.3073613496      .96655136982E-6  .10113073612E-5      -.5113712895E-3
                      297.52483730101      162.8905339      -.2975248366E-6      -17.1094660      .3351943643E-12

 LN1C                  698.7544362319  956.42294070801      -.7927535294188  1.1638660844027      1.2760020761141  1.2754907048247
                      653.05978237738       43.0639985      .85213033276417      132.9326421      -556.5726488339     -556.5726488

            VFF2C     740.93975221987  1011.3073613496      -.7409397515E-6  .10113073609E-5      -.5113712893E-3
                      688.29562159026       42.8905339      -.6882956216E-6     -137.1094660      .2466057112E-12
     Total network loss  P-loss  by summing injections =   2.756642344608E+05

Output for steady-state phasor switch currents.
      Node-K    Node-M            I-real            I-imag            I-magn          Degrees        Power            Reactive
      LN1A      COMPA        -7.06158805E-01   -1.78813141E-01    7.28446564E-01    -165.7903    6.96539518E+00    3.48281858E+02
      LN1B      COMPB         1.98222831E-01    7.00957981E-01    7.28446554E-01      74.2097    6.96531827E+00    3.48281855E+02
      LN1C      COMPC         5.07936056E-01   -5.22144904E-01    7.28446524E-01     -45.7903    6.96536787E+00    3.48281839E+02
      VFF2A     RSNNHA        2.25611618E-07   -9.85820459E-07    1.01130736E-06     -77.1095    5.11371289E-04   -3.37113033E-13
      VFF2B     RSNNHB       -9.66551369E-07    2.97524837E-07    1.01130736E-06     162.8905    5.11371289E-04   -2.02503831E-13
      VFF2C     RSNNHC        7.40939752E-07    6.88295622E-07    1.01130736E-06      42.8905    5.11371290E-04   -2.09338871E-14
      VFF2A     SE2A              Open              Open              Open             Open          Open              Open
      VFF2B     SE2B              Open              Open              Open             Open          Open              Open
      VFF2C     SE2C              Open              Open              Open             Open          Open              Open
      X0001B    XX0003            Open              Open              Open             Open          Open              Open
      X0001C    XX0004            Open              Open              Open             Open          Open              Open
      XX0005    X0002A            Open              Open              Open             Open          Open              Open
      XX0003    X0002B            Open              Open              Open             Open          Open              Open
      XX0004    X0002C            Open              Open              Open             Open          Open              Open
      X0001A    XX0005            Open              Open              Open             Open          Open              Open
      VFUENA    IFUENA        4.28708187E-01    1.22087234E-01    4.45753297E-01      15.8959    9.18851767E+04   -2.61669998E+04
      VFUENB    IFUENB       -1.08623448E-01   -4.32315797E-01    4.45753297E-01    -104.1041    9.18851767E+04   -2.61669998E+04
      VFUENC    IFUENC       -3.20084739E-01    3.10228564E-01    4.45753297E-01     135.8959    9.18851767E+04   -2.61669998E+04
      COMPA     RSNSHA       -7.06158805E-01   -1.78813141E-01    7.28446564E-01    -165.7903    6.96539518E+00    3.48281858E+02
      COMPB     RSNSHB        1.98222831E-01    7.00957981E-01    7.28446554E-01      74.2097    6.96531827E+00    3.48281855E+02
      COMPC     RSNSHC        5.07936056E-01   -5.22144904E-01    7.28446524E-01     -45.7903    6.96536787E+00    3.48281839E+02

Solution at nodes with known voltage.   Nodes that are shorted together by switches are shown as a group of names, with the printed
result applying to the composite group.   The entry "MVA" is  SQRT( P**2 + Q**2 )  in units of power,  while  "P.F."  is the
associated power factor.
              Node                Source  node  voltage             Injected  source  current              Injected  source  power
              name         Rectangular            Polar          Rectangular            Polar            P  and  Q    MVA and P.F.

               VFUENA
              IFUENA       428660.705       428660.705      .42870818650348  .44575329697184      91885.176732928  95538.461268012
                                  0.0              0.0      .12208723351014       15.8958580      -26166.99979398        0.9617611

               VFUENB
              IFUENB     -214330.3525       428660.705      -.1086234475535  .44575329697437      91885.176733371  95538.461268553
                      -371231.0601341     -120.0000000      -.4323157970802     -104.1041420       -26166.9997944        0.9617611

               VFUENC
              IFUENC     -214330.3525       428660.705      -.3200847389615  .44575329697766      91885.176733445  95538.461269258
                      371231.06013415      120.0000000      .31022856356301      135.8958580      -26166.99979671        0.9617611

  +++  Node  "COMPC "  has no connected linear branches.  Add (to ground) the conductance  G = 1.00000000E-18  mhos.
  +++  Node  "COMPB "  has no connected linear branches.  Add (to ground) the conductance  G = 1.00000000E-18  mhos.
  +++  Node  "COMPA "  has no connected linear branches.  Add (to ground) the conductance  G = 1.00000000E-18  mhos.
Card of names for time-step loop output.          |  LN1A  LN1B  LN1C  COMPA COMPB COMPC SB1A  SB1B  SB1C  SE2A  SE2B  SE2C  VFF2A
Card of names for time-step loop output.          |  VFF2B VFF2C IFUENAIFUENBIFUENC
Card of names for time-step loop output.          |-5VFF2A VFF2B VFF2B VFF2C VFF2C VFF2A LN1A  LN1B  LN1B  LN1C  LN1C  LN1A
Card of names for time-step loop output.          |-5SB1A  SB1B  SB1B  SB1C  SB1C  SB1A
Blank card ending requests for output variables.  |BLANK OUTPUT

Column headings for the  55   EMTP output variables follow.  These are divided among the 5 possible classes as follows ....
  First  27     output variables are electric-network voltage differences (upper voltage minus lower voltage);
  Next   6     output variables are branch currents (flowing from the upper node to the lower node);
  Next   22     output variables belong to MODELS (with "MODELS" an internally-added upper name of pair).
   Step      Time      LN1A       LN1B       LN1C       COMPA      COMPB      COMPC      SB1A       SB1B       SB1C       SE2A
 

                       SE2B       SE2C       VFF2A      VFF2B      VFF2C      IFUENA     IFUENB     IFUENC     VFF2A      VFF2B
                                                                                                               VFF2B      VFF2C

                       VFF2C      LN1A       LN1B       LN1C       SB1A       SB1B       SB1C       VFUENA     VFUENB     VFUENC
                       VFF2A      LN1B       LN1C       LN1A       SB1B       SB1C       SB1A       IFUENA     IFUENB     IFUENC

                       COMPA      COMPB      COMPC      MODELS     MODELS     MODELS     MODELS     MODELS     MODELS     MODELS
                       RSNSHA     RSNSHB     RSNSHC     ANVOL      LONG       R0F        R1F        X0F        X1F        RDIVX

                       MODELS     MODELS     MODELS     MODELS     MODELS     MODELS     MODELS     MODELS     MODELS     MODELS
                       RINSER     CLOSE1     RPPOS      RPCERO     LPPOS      LPCERO     CPPOS      CPCERO     XP         CR

                       MODELS     MODELS     MODELS     MODELS     MODELS
                       SIMET      ENC1       ENC2       ENC1AS     ENC2AS
 ***      Phasor I(0) = -7.0615880E-01                     Switch  "LN1A  "  to  "COMPA "  closed in the steady-state.
 ***      Phasor I(0) =  1.9822283E-01                     Switch  "LN1B  "  to  "COMPB "  closed in the steady-state.
 ***      Phasor I(0) =  5.0793606E-01                     Switch  "LN1C  "  to  "COMPC "  closed in the steady-state.
 ***      Phasor I(0) =  2.2561162E-07                     Switch  "VFF2A "  to  "RSNNHA"  closed in the steady-state.
 ***      Phasor I(0) = -9.6655137E-07                     Switch  "VFF2B "  to  "RSNNHB"  closed in the steady-state.
 ***      Phasor I(0) =  7.4093975E-07                     Switch  "VFF2C "  to  "RSNNHC"  closed in the steady-state.
 ***      Phasor I(0) =  4.2870819E-01                     Switch  "VFUENA"  to  "IFUENA"  closed in the steady-state.
 ***      Phasor I(0) = -1.0862345E-01                     Switch  "VFUENB"  to  "IFUENB"  closed in the steady-state.
 ***      Phasor I(0) = -3.2008474E-01                     Switch  "VFUENC"  to  "IFUENC"  closed in the steady-state.
 ***      Phasor I(0) = -7.0615880E-01                     Switch  "COMPA "  to  "RSNSHA"  closed in the steady-state.
 ***      Phasor I(0) =  1.9822283E-01                     Switch  "COMPB "  to  "RSNSHB"  closed in the steady-state.
 ***      Phasor I(0) =  5.0793606E-01                     Switch  "COMPC "  to  "RSNSHC"  closed in the steady-state.
      0       0.0  216.189144 -914.94358 698.754436 216.189144 -914.94358 698.754436 428661.314 -214334.83 -214326.49        0.0
                          0.0        0.0 225.611618 -966.55137 740.939752 428660.705 -214330.35 -214330.35 1192.16299 -1707.4911
                   515.328135 1131.13272  -1613.698 482.565293  642996.14 -8.3397908  -642987.8 .428708187 -.10862345 -.32008474
                    -.7061588 .198222831 .507936056        0.0   288.1101    1.72871   1.645347   11.30813   10.76282    .152873
                        .1E-5    .045228    .017267    .216459    .324381    .849833    .012949    .008054   1312.652   26.25305
                          0.0        0.0        0.0        1.0        0.0
    500     .5E-3  359.272715 -947.26344 587.990132 359.272715 -947.26344 587.990132 423384.484 -153622.96 -269761.52        0.0
                          0.0        0.0 377.050256 -1001.1946 624.144389  423383.18 -153618.26 -269764.92  1378.2449  -1625.339
                   247.094134 1306.53616 -1535.2536 228.717417  577007.44 116138.568 -693146.01 .404391987 -.03966249 -.36471398
                   -.66949225 .086128275 .583364009        0.0   288.1101    1.72871   1.645347   11.30813   10.76282    .152873
                        .1E-5    .045228    .017267    .216459    .324381    .849833    .012949    .008054   1312.652   26.25305
                          0.0        0.0        0.0        1.0        0.0
   1000     .1E-2  493.509863 -956.25809 462.748189 493.509863 -956.25809 462.748189 407682.628 -89128.409 -318554.22        0.0
                          0.0        0.0 519.204668 -1011.1852 491.980529 407680.557 -89123.572 -318556.98 1530.38986 -1503.1657
                   -27.224139 1449.76795 -1419.0063 -30.761674 496811.037 229425.808 -726236.85 .370057044 .030282924 -.40033016
                   -.61634062 -.02808691 .644427531        0.0   288.1101    1.72871   1.645347   11.30813   10.76282    .152873
                        .1E-5    .045228    .017267    .216459    .324381    .849833    .012949    .008054   1312.652   26.25305
                          0.0        0.0        0.0        1.0        0.0
   1500     .0015  615.594774 -941.70657 326.111843 615.594774 -941.70657 326.111843 381942.214 -22439.208   -359503.        0.0
                          0.0        0.0 648.575737 -996.27584 347.703555 381939.485 -22434.368 -359505.12 1644.85158 -1343.9794
                   -300.87218 1557.30135 -1267.8184 -289.48293 404381.422 337063.797 -741445.22 .326608674 .099482417 -.42608872
                   -.54801259 -.14161052 .689623135        0.0   288.1101    1.72871   1.645347   11.30813   10.76282    .152873
                        .1E-5    .045228    .017267    .216459    .324381    .849833    .012949    .008054   1312.652   26.25305
                          0.0        0.0        0.0        1.0        0.0
   2000      .002  722.521959 -903.96725 181.445294 722.521959 -903.96725 181.445294 346797.118 44802.5199 -391599.64        0.0
                          0.0        0.0 761.973754 -956.83695 194.863299 346793.795 44807.2448 -391601.04 1718.81071 -1151.7003
                   -567.11045 1626.48921 -1085.4125 -541.07666 301994.598 436402.157 -738396.75 .275119739 .166231935 -.44135666
                   -.46619071 -.25164716 .717837962        0.0   288.1101    1.72871   1.645347   11.30813   10.76282    .152873
                        .1E-5    .045228    .017267    .216459    .324381    .849833    .012949    .008054   1312.652   26.25305
                          0.0        0.0        0.0        1.0        0.0
   2500     .0025  811.658035 -843.96915 32.3111176 811.658035 -843.96915 32.3111176 303112.833 110941.032 -414053.86        0.0
                          0.0        0.0 856.611857 -893.83682  37.224962 303108.891 110945.554 -414054.45 1750.44868 -931.06178
                   -819.38689 1655.62719 -876.28027 -779.34692 192171.801 524994.896  -717166.7  .21686034 .228887191 -.44575985
                   -.37288973 -.35548749 .728377204        0.0   288.1101    1.72871   1.645347   11.30813   10.76282    .152873
                        .1E-5    .045228    .017267    .216459    .324381    .849833    .012949    .008054   1312.652   26.25305
                          0.0        0.0        0.0        1.0        0.0
   3000      .003  880.808179 -763.18987 -117.61871 880.808179 -763.18987 -117.61871 251964.675 174347.849 -426312.57        0.0
                          0.0        0.0 930.156651 -808.82725 -121.32942 251960.441 174352.016 -426312.46  1738.9839 -687.49783
                   -1051.4861 1643.99805 -645.57116 -998.42689 77616.8258 600660.422 -678277.25 .153244692 .285908744  -.4391779
                   -.27040694  -.4505745 .720981388        0.0   288.1101    1.72871   1.645347   11.30813   10.76282    .152873
                        .1E-5    .045228    .017267    .216459    .324381    .849833    .012949    .008054   1312.652   26.25305
                          0.0        0.0        0.0        1.0        0.0
   3500     .0035  928.270848 -663.61838 -264.65282 928.270848 -663.61838 -264.65282 194612.442 233461.646 -428074.09        0.0
                          0.0        0.0 980.797325 -703.90148 -276.89586 194607.888 233465.353 -428073.24  1684.6988 -427.00561
                   -1257.6932 1591.88923 -398.96556 -1192.9237 -38849.205 661535.741 -622686.54  .08587629 .335888436 -.42179188
                   -.16126574 -.53456687 .695832599        0.0   288.1101    1.72871   1.645347   11.30813   10.76282    .152873
                        .1E-5    .045228    .017267    .216459    .324381    .849833    .012949    .008054   1312.652   26.25305
                          0.0        0.0        0.0        1.0        0.0
   4000      .004  952.875964 -547.70619 -405.16982 952.875964 -547.70619 -405.16982 132468.212 286826.826 -419295.04        0.0
                          0.0        0.0 1007.29061 -581.64418 -425.64643 132463.443 286829.997 -419293.44 1588.93479 -155.99775
                    -1432.937 1500.58216 -142.53637 -1358.0458 -154358.61 706121.864 -551763.25 .016385078 .377598485 -.39401557
                   -.04815377  -.6053964 .653550161        0.0   288.1101    1.72871   1.645347   11.30813   10.76282    .152873
                        .1E-5    .045228    .017267    .216459    .324381    .849833    .012949    .008054   1312.652   26.25305
                          0.0        0.0        0.0        1.0        0.0
   4500     .0045  954.019246   -418.308 -535.71114 954.019246   -418.308 -535.71114 67062.2051 333129.366 -400191.57        0.0
                          0.0        0.0 1008.97775 -445.06263 -563.91196 67057.3081 333131.936 -400189.24 1454.04038 118.849332
                   -1572.8897 1372.32724 117.403141 -1489.7304 -266067.16 733320.937 -467253.78 -.05350475 .410009082 -.35654138
                   .066143983 -.66131907 .595175072        0.0   288.1101    1.72871   1.645347   11.30813   10.76282    .152873
                        .1E-5    .045228    .017267    .216459    .324381    .849833    .012949    .008054   1312.652   26.25305
                          0.0        0.0        0.0        1.0        0.0
   5000      .005  931.667619 -278.60879 -653.05883 931.667619 -278.60879 -653.05883 4.80676758 371229.182 -371233.99        0.0
                          0.0        0.0 985.820412 -297.52457 -688.29532 -.45661E-7  371231.06 -371231.06 1283.34498 390.770748
                   -1674.1157 1210.27641 374.450039 -1584.7265 -371224.38 742463.171  -371238.8 -.12208395 .432325686 -.31028303
                   .178813086  -.7009579 .522144865        0.0   288.1101    1.72871   1.645347   11.30813   10.76282    .152873
                        .1E-5    .045228    .017267    .216459    .324381    .849833    .012949    .008054   1312.652   26.25305
                          0.0        0.0        0.0        1.0        0.0
   5500     .0055  886.378916 -132.05042  -754.3289 886.378916 -132.05042  -754.3289 -67052.621  400188.09 -333135.44        0.0
                          0.0        0.0 938.387813 -142.65924 -795.72856 -67057.308 400189.244 -333131.94 1081.04705 653.069323
                   -1734.1164 1018.42934 622.278478 -1640.7078 -467240.71 733323.534 -266082.82 -.18765935 .443996082 -.25638493
                    .28707913  -.7233368 .436257728        0.0   288.1101    1.72871   1.645347   11.30813   10.76282    .152873
                        .1E-5    .045228    .017267    .216459    .324381    .849833    .012949    .008054   1312.652   26.25305
                          0.0        0.0        0.0        1.0        0.0
   6000      .006  819.263541 17.7599774 -837.02378 819.263541 17.7599774 -837.02378 -132459.06 419293.027 -286833.99        0.0
                          0.0        0.0 867.853957 15.7176574 -883.57164 -132463.44  419293.44   -286830. 852.136299 899.289297
                   -1751.4256 801.503564 854.783756 -1656.2873 -551752.09 706127.017 -154374.93 -.24860915 .444736402 -.19617198
                   .388276302 -.72790475 .339628367        0.0   288.1101    1.72871   1.645347   11.30813   10.76282    .152873
                        .1E-5    .045228    .017267    .216459    .324381    .849833    .012949    .008054   1312.652   26.25305
                          0.0        0.0        0.0        1.0        0.0
   6500     .0065  731.977223 167.132597  -899.1098 731.977223 167.132597  -899.1098 -194603.86 428073.588 -233469.74        0.0
                          0.0        0.0 775.946761  173.70863 -949.65539 -194607.89  428073.24 -233465.35 602.238131 1123.36402
                   -1725.6021 564.844626 1066.24239  -1631.087 -622677.44 661543.328 -38865.885 -.30343082 .434521054 -.13113749
                    .47991296 -.71454926 .234636346        0.0   288.1101    1.72871   1.645347   11.30813   10.76282    .152873
                        .1E-5    .045228    .017267    .216459    .324381    .849833    .012949    .008054   1312.652   26.25305
                          0.0        0.0        0.0        1.0        0.0
   7000      .007  626.662745  312.39086 -939.05371 626.662745  312.39086 -939.05371 -251956.92 426313.571 -174356.65        0.0
                          0.0        0.0 664.934224  327.42161 -992.35678 -251960.44 426312.457 -174352.02 337.512614 1319.77839
                    -1657.291 314.271885 1251.44457 -1565.7165 -678270.49 600670.219 77600.2751 -.35079089 .413609614 -.06286596
                   .559732501 -.68359919 .123866724        0.0   288.1101    1.72871   1.645347   11.30813   10.76282    .152873
                        .1E-5    .045228    .017267    .216459    .324381    .849833    .012949    .008054   1312.652   26.25305
                          0.0        0.0        0.0        1.0        0.0
   7500     .0075  505.920848 449.956307 -955.87711 505.920848 449.956307 -955.87711 -303105.91 414056.279 -110950.37        0.0
                          0.0        0.0 537.548229 473.073647 -1010.6212 -303108.89 414054.446 -110945.55 64.4745825 1483.69485
                   -1548.1694 55.9645405 1405.83342  -1461.798 -717162.19 525006.645 192155.547 -.38951357 .382513861  .00695377
                   .625769516 -.63581669 .010047155        0.0   288.1101    1.72871   1.645347   11.30813   10.76282    .152873
                        .1E-5    .045228    .017267    .216459    .324381    .849833    .012949    .008054   1312.652   26.25305
                          0.0        0.0        0.0        1.0        0.0
   8000      .008   372.72037 576.442553 -949.16292  372.72037 576.442553 -949.16292 -346791.46 391603.555 -44812.097        0.0
                          0.0        0.0 396.927168 607.075849 -1004.0027  -346793.8  391601.04 -44807.245 -210.14868 1611.07857
                   -1400.9299 -203.72218 1525.60547 -1321.8833 -738395.01 436415.652  301979.36 -.41864122 .341998275 .076599427
                   .676398039 -.57237819 -.10401982        0.0   288.1101    1.72871   1.645347   11.30813   10.76282    .152873
                        .1E-5    .045228    .017267    .216459    .324381    .849833    .012949    .008054   1312.652   26.25305
                          0.0        0.0        0.0        1.0        0.0
   8500     .0085  230.339207 688.735525 -919.07527 230.339207 688.735525 -919.07527 -381937.84 359508.247 22429.5856        0.0
                          0.0        0.0 246.531011 726.130262  -972.6613 -381939.48 359505.117 22434.3679 -479.59925 1698.79156
                   -1219.1923 -458.39632 1607.81079 -1149.4145 -741446.08 337078.661 404367.424 -.43745654 .293059289 .144354434
                   .710371411 -.49484591 -.21552547        0.0   288.1101    1.72871   1.645347   11.30813   10.76282    .152873
                        .1E-5    .045228    .017267    .216459    .324381    .849833    .012949    .008054   1312.652   26.25305
                          0.0        0.0        0.0        1.0        0.0
   9000      .009   82.293295 784.067891 -866.36159  82.293295 784.067891 -866.36159 -407679.67 318560.666 89119.0061        0.0
                          0.0        0.0 90.0658823 827.304654  -917.3706 -407680.56 318556.985  89123.572 -737.23877 1744.67525
                   -1007.4365  -701.7746 1650.42949 -948.65489 -726240.34  229441.66 496798.679 -.44550811 .236909386 .208564829
                   .726853058 -.40512881 -.32172426        0.0   288.1101    1.72871   1.645347   11.30813   10.76282    .152873
                        .1E-5    .045228    .017267    .216459    .324381    .849833    .012949    .008054   1312.652   26.25305
                          0.0        0.0        0.0        1.0        0.0
   9500     .0095  -67.781469  860.09456 -792.31346 -67.781469  860.09456 -792.31346 -423383.03 269769.049 153613.983        0.0
                          0.0        0.0 -68.605334  908.10394 -839.50103 -423383.18 269764.922 153618.258 -976.70927 1747.60497
                   -770.89569 -927.87603 1652.40802 -724.53199 -693152.08 116155.066 576997.015 -.44258894 .174923419 .267635853
                   .725437186 -.30543615 -.42000099        0.0   288.1101    1.72871   1.645347   11.30813   10.76282    .152873
                        .1E-5    .045228    .017267    .216459    .324381    .849833    .012949    .008054   1312.652   26.25305
                          0.0        0.0        0.0        1.0        0.0
  10000       .01  -216.18904 914.943535 -698.75432 -216.18904 914.943535 -698.75432 -428661.32 214334.827 214326.488        0.0
                          0.0        0.0 -225.61121 966.551658 -740.93931 -428660.71 214330.353 214330.352 -1192.1629 1707.49096
                   -515.32809 -1131.1326 1613.69785 -482.56528 -642996.14 8.33939022 642987.804 -.42876749 .108629524 .320114273
                   .706158658 -.19822259 -.50793603        0.0   288.1101    1.72871   1.645347   11.30813   10.76282    .152873
                        .1E-5    .045228    .017267    .216459    .324381    .849833    .012949    .008054   1312.652   26.25305
                          0.0        0.0        0.0        1.0        0.0
  10500     .0105  -359.27261 947.263066 -587.99047 -359.27261 947.263066 -587.99047 -423384.53 153622.971 269761.563        0.0
                          0.0        0.0 -377.05087 1001.19463 -624.14396 -423383.18 153618.258 269764.922 -1378.2455 1625.33859
                   -247.09309 -1306.5357 1535.25353 -228.71786 -577007.51 -116138.59 693146.097 -.40439072 .039661466 .364712154
                   .669492117 -.08612817 -.58336387        0.0   288.1101    1.72871   1.645347   11.30813   10.76282    .152873
                        .1E-5    .045228    .017267    .216459    .324381    .849833    .012949    .008054   1312.652   26.25305
                          0.0        0.0        0.0        1.0        0.0
  11000      .011  -493.50968 956.258019 -462.74815 -493.50968 956.258019 -462.74815 -407682.64 89128.4208 318554.238        0.0
                          0.0        0.0 -519.20481 1011.18512 -491.98033 -407680.56  89123.572 318556.985 -1530.3899 1503.16546
                   27.2244728 -1449.7677 1419.00617  30.761528 -496811.06 -229425.82 726236.881 -.37005592 -.03028328 .400329281
                    .61634051 .028086975 -.64442749        0.0   288.1101    1.72871   1.645347   11.30813   10.76282    .152873
                        .1E-5    .045228    .017267    .216459    .324381    .849833    .012949    .008054   1312.652   26.25305
                          0.0        0.0        0.0        1.0        0.0
  11500     .0115  -615.59434 941.706361 -326.11207 -615.59434 941.706361 -326.11207 -381942.22 22439.2053 359503.002        0.0
                          0.0        0.0 -648.57454 996.276888 -347.70236 -381939.48 22434.3679 359505.117 -1644.8514 1343.97925
                   300.872178 -1557.3007 1267.81843 289.482269 -404381.42  -337063.8 741445.221 -.32661082 -.09948205 .426089982
                   .548012535 .141610534 -.68962309        0.0   288.1101    1.72871   1.645347   11.30813   10.76282    .152873
                        .1E-5    .045228    .017267    .216459    .324381    .849833    .012949    .008054   1312.652   26.25305
                          0.0        0.0        0.0        1.0        0.0
  12000      .012  -722.52181 903.967061 -181.44537 -722.52181 903.967061 -181.44537 -346797.12 -44802.519 391599.638        0.0
                          0.0        0.0 -761.97411 956.836998 -194.86291  -346793.8 -44807.245  391601.04 -1718.8111 1151.69991
                   567.111202 -1626.4889 1085.41243 541.076441  -301994.6 -436402.16 738396.756 -.27511949 -.16623192 .441356597
                    .46619069 .251647276 -.71783787        0.0   288.1101    1.72871   1.645347   11.30813   10.76282    .152873
                        .1E-5    .045228    .017267    .216459    .324381    .849833    .012949    .008054   1312.652   26.25305
                          0.0        0.0        0.0        1.0        0.0
  12500     .0125  -811.65826 843.968978 -32.311075 -811.65826 843.968978 -32.311075 -303112.73 -110941.06 414053.789        0.0
                          0.0        0.0 -856.61267 893.836191 -37.225315 -303108.89 -110945.55 414054.446 -1750.4489 931.061506
                   819.387354 -1655.6272 876.280054 779.347183 -192171.67 -524994.85 717166.517 -.21685632 -.22888815 .445757058
                   .372889661  .35548755 -.72837711        0.0   288.1101    1.72871   1.645347   11.30813   10.76282    .152873
                        .1E-5    .045228    .017267    .216459    .324381    .849833    .012949    .008054   1312.652   26.25305
                          0.0        0.0        0.0        1.0        0.0
  13000      .013  -880.80873 763.189831 117.619024 -880.80873 763.189831 117.619024 -251964.72 -174347.86 426312.575        0.0
                          0.0        0.0 -930.15643 808.827392 121.329749 -251960.44 -174352.02 426312.457 -1738.9838 687.497643
                   1051.48618 -1643.9986 645.570807 998.427756 -77616.858 -600660.43 678277.291 -.15325466 -.28590815 .439182289
                   .270406798  .45057445 -.72098129        0.0   288.1101    1.72871   1.645347   11.30813   10.76282    .152873
                        .1E-5    .045228    .017267    .216459    .324381    .849833    .012949    .008054   1312.652   26.25305
                          0.0        0.0        0.0        1.0        0.0
  13500     .0135  -928.27115 663.617547 264.651975 -928.27115 663.617547 264.651975 -194612.45 -233461.65 428074.099        0.0
                          0.0        0.0 -980.79802 703.901375 276.896153 -194607.89 -233465.35  428073.24 -1684.6994 427.005223
                   1257.69417 -1591.8887 398.965572 1192.92313 38849.1946 -661535.74  622686.55 -.08587884 -.33588911 .421791872
                   .161265635 .534566799 -.69583255        0.0   288.1101    1.72871   1.645347   11.30813   10.76282    .152873
                        .1E-5    .045228    .017267    .216459    .324381    .849833    .012949    .008054   1312.652   26.25305
                          0.0        0.0        0.0        1.0        0.0
  14000      .014  -952.87578 547.706106 405.169822 -952.87578 547.706106 405.169822 -132468.21 -286826.83 419295.036        0.0
                          0.0        0.0 -1007.2891 581.643684 425.645369 -132463.44   -286830.  419293.44 -1588.9328 155.998315
                    1432.9345 -1500.5819 142.536283  1358.0456 154358.619 -706121.86 551763.242 -.01638514 -.37759916 .394014677
                   .048153658 .605396347 -.65355006        0.0   288.1101    1.72871   1.645347   11.30813   10.76282    .152873
                        .1E-5    .045228    .017267    .216459    .324381    .849833    .012949    .008054   1312.652   26.25305
                          0.0        0.0        0.0        1.0        0.0
  14500     .0145  -954.01795  418.30758 535.710236 -954.01795  418.30758 535.710236 -67062.162 -333129.38 400191.537        0.0
                          0.0        0.0 -1008.9768 445.063619 563.913112 -67057.308 -333131.94 400189.244 -1454.0404 -118.84949
                   1572.88991 -1372.3255 -117.40266 1489.72819 266067.217 -733320.92 467253.699 .053509905 -.41001026 .356537905
                   -.06614409 .661319052 -.59517495        0.0   288.1101    1.72871   1.645347   11.30813   10.76282    .152873
                        .1E-5    .045228    .017267    .216459    .324381    .849833    .012949    .008054   1312.652   26.25305
                          0.0        0.0        0.0        1.0        0.0
  % % % % % %   Suspended simulation;  plot data space exhausted;  SPY SPACE is required.   LIMBUF =  840000.
  % % % % % %   Suspended simulation;  plot data space exhausted;  SPY SPACE is required.   LIMBUF =  840000.
  +++  Time-sharing disabled.   Send  user-keyed interrupt to silence alarm.
   Current values.  INDBUF  INDBEG  LIMBUF  MFLUSH  NUMDCD  KCARD1  KCARD2
                    839994      50  840000    1000     230       1     231
Plot timespan now in memory (in sec) = 0.00000000E+00   1.49990000E-02
   ++++  Begin plot-data copy from memory to disk.   MFLUSH, INDBUF, N4, Tbeg,  Tend = 1001  839994       1  -1.00000E+00
1.00000E+19
  15000      .015  -931.66726 278.608694 653.058658 -931.66726 278.608694 653.058658 -4.8269874 -371229.18 371234.005        0.0
                          0.0        0.0 -985.82013  297.52467 688.295494 -.61533E-6 -371231.06  371231.06 -1283.3448 -390.77082
                   1674.11562  -1210.276 -374.44996 1584.72592 371224.348 -742463.18 371238.832 .122084355 -.43232592 .310282581
                   -.17881311 .700957869 -.52214481        0.0   288.1101    1.72871   1.645347   11.30813   10.76282    .152873
                        .1E-5    .045228    .017267    .216459    .324381    .849833    .012949    .008054   1312.652   26.25305
                          0.0        0.0        0.0        1.0        0.0
  15500     .0155  -886.37886 132.050202  754.32868 -886.37886 132.050202  754.32868 67052.6544 -400188.09 333135.434        0.0
                          0.0        0.0 -938.38962 142.659719 795.729958 67057.3081 -400189.24 333131.936 -1081.0493 -653.07024
                   1734.11958 -1018.4291 -622.27848 1640.70754 467240.742 -733323.52  266082.78 .187656541 -.44399692 .256384787
                   -.28707913 .723336734 -.43625757        0.0   288.1101    1.72871   1.645347   11.30813   10.76282    .152873
                        .1E-5    .045228    .017267    .216459    .324381    .849833    .012949    .008054   1312.652   26.25305
                          0.0        0.0        0.0        1.0        0.0
  16000      .016  -819.26385 -17.760035 837.023904 -819.26385 -17.760035 837.023904 132459.055 -419293.04 286833.981        0.0
                          0.0        0.0 -867.85619 -15.717052 883.573317 132463.443 -419293.44 286829.997 -852.13914 -899.29037
                   1751.42951 -801.50382 -854.78394 1656.28776  551752.09 -706127.02 154374.925 .248608983 -.44473558 .196173154
                    -.3882764  .72790468 -.33962831        0.0   288.1101    1.72871   1.645347   11.30813   10.76282    .152873
                        .1E-5    .045228    .017267    .216459    .324381    .849833    .012949    .008054   1312.652   26.25305
                          0.0        0.0        0.0        1.0        0.0
  16500     .0165  -731.97558 -167.13344 899.108097 -731.97558 -167.13344 899.108097 194603.874 -428073.59 233469.725        0.0
                          0.0        0.0 -775.94693 -173.70872 949.655368 194607.888 -428073.24 233465.353  -602.2382 -1123.3641
                   1725.60229 -564.84214 -1066.2415 1631.08368 622677.469 -661543.32 38865.8508 .303437362  -.4345224 .131133306
                   -.47991291 .714549176 -.23463623        0.0   288.1101    1.72871   1.645347   11.30813   10.76282    .152873
                        .1E-5    .045228    .017267    .216459    .324381    .849833    .012949    .008054   1312.652   26.25305
                          0.0        0.0        0.0        1.0        0.0
  17000      .017    -626.658 -312.39215 939.050231   -626.658 -312.39215 939.050231 251956.904 -426313.57  174356.66        0.0
                          0.0        0.0 -664.93364 -327.42219 992.355817 251960.441 -426312.46 174352.016 -337.51145  -1319.778
                   1657.28945 -314.26585 -1251.4424 1565.70823 678270.472 -600670.23 -77600.244 .350793276 -.41361054 .062863861
                   -.55973239 .683599143 -.12386673        0.0   288.1101    1.72871   1.645347   11.30813   10.76282    .152873
                        .1E-5    .045228    .017267    .216459    .324381    .849833    .012949    .008054   1312.652   26.25305
                          0.0        0.0        0.0        1.0        0.0
  17500     .0175   -505.9199 -449.95598 955.877208  -505.9199 -449.95598 955.877208 303105.928 -414056.28 110950.356        0.0
                          0.0        0.0 -537.54702 -473.07186 1010.62318 303108.891 -414054.45 110945.554 -64.475167  -1483.695
                   1548.17021 -55.963915 -1405.8332  1461.7971 717162.211 -525006.64 -192155.57 .389512498 -.38251361 -.00695305
                   -.62576947 .635816584 -.01004713        0.0   288.1101    1.72871   1.645347   11.30813   10.76282    .152873
                        .1E-5    .045228    .017267    .216459    .324381    .849833    .012949    .008054   1312.652   26.25305
                          0.0        0.0        0.0        1.0        0.0
  18000      .018  -372.72103 -576.44246 949.163264 -372.72103 -576.44246 949.163264 346791.461 -391603.56  44812.095        0.0
                          0.0        0.0 -396.93213 -607.07477 1004.00591 346793.795 -391601.04 44807.2448 210.142642 -1611.0807
                   1400.93803  203.72143 -1525.6057  1321.8843 738395.016 -436415.65 -301979.37 .418642345 -.34199867 -.07660036
                     -.676398  .57237813  .10401991        0.0   288.1101    1.72871   1.645347   11.30813   10.76282    .152873
                        .1E-5    .045228    .017267    .216459    .324381    .849833    .012949    .008054   1312.652   26.25305
                          0.0        0.0        0.0        1.0        0.0
  18500     .0185  -230.34291 -688.73467 919.077695 -230.34291 -688.73467 919.077695  381937.84 -359508.25  -22429.59        0.0
                          0.0        0.0 -246.53155 -726.12993  972.66188 381939.485 -359505.12 -22434.368 479.598383 -1698.7918
                   1219.19343 458.391752 -1607.8124 1149.42061 741446.089 -337078.66 -404367.43 .437461812 -.29306196 -.14435996
                   -.71037135 .494845862 .215525584        0.0   288.1101    1.72871   1.645347   11.30813   10.76282    .152873
                        .1E-5    .045228    .017267    .216459    .324381    .849833    .012949    .008054   1312.652   26.25305
                          0.0        0.0        0.0        1.0        0.0
  19000      .019  -82.296366 -784.06735 866.363309 -82.296366 -784.06735 866.363309 407679.647 -318560.66 -89118.983        0.0
                          0.0        0.0 -90.065853 -827.30474 917.370391 407680.557 -318556.98 -89123.572 737.238892 -1744.6751
                   1007.43624  701.77098 -1650.4307 948.659675 726240.302 -229441.67 -496798.63 .445512182 -.23691032 -.20856756
                     -.726853 .405128699 .321724244        0.0   288.1101    1.72871   1.645347   11.30813   10.76282    .152873
                        .1E-5    .045228    .017267    .216459    .324381    .849833    .012949    .008054   1312.652   26.25305
                          0.0        0.0        0.0        1.0        0.0
  19500     .0195  67.7826318  -860.0949 792.312468 67.7826318  -860.0949 792.312468 423383.043 -269769.05 -153613.99        0.0
                          0.0        0.0 68.6179682 -908.10833 839.490411  423383.18 -269764.92 -153618.26 976.726299 -1747.5987
                   770.872442 927.877534 -1652.4074 724.529836 693152.092 -116155.06 -576997.03 .442587797  -.1749231 -.26763502
                   -.72543711 .305436069 .420000996        0.0   288.1101    1.72871   1.645347   11.30813   10.76282    .152873
                        .1E-5    .045228    .017267    .216459    .324381    .849833    .012949    .008054   1312.652   26.25305
                          0.0        0.0        0.0        1.0        0.0
  20000       .02  216.189017 -914.94343 698.754385 216.189017 -914.94343 698.754385 428661.315 -214334.83 -214326.49        0.0
                          0.0        0.0 225.611665 -966.55126 740.939586 428660.705 -214330.35 -214330.35 1192.16292 -1707.4908
                   515.327921 1131.13245 -1613.6978 482.565368 642996.143 -8.3394005  -642987.8 .428769219 -.10862994 -.32011546
                   -.70615857 .198222553 .507936017        0.0   288.1101    1.72871   1.645347   11.30813   10.76282    .152873
                        .1E-5    .045228    .017267    .216459    .324381    .849833    .012949    .008054   1312.652   26.25305
                          0.0        0.0        0.0        1.0        0.0
  20500     .0205  359.272541 -947.26304  587.99043 359.272541 -947.26304  587.99043 423384.534 -153622.97 -269761.56        0.0
                          0.0        0.0 377.050331 -1001.1946  624.14406  423383.18 -153618.26 -269764.92 1378.24493 -1625.3387
                   247.093728 1306.53558 -1535.2535 228.717889 577007.503 116138.591 -693146.09 .404390931 -.03966145  -.3647122
                   -.66949201 .086128088 .583363919        0.0   288.1101    1.72871   1.645347   11.30813   10.76282    .152873
                        .1E-5    .045228    .017267    .216459    .324381    .849833    .012949    .008054   1312.652   26.25305
                          0.0        0.0        0.0        1.0        0.0
  21000      .021  493.509685 -956.25792 462.748139 493.509685 -956.25792 462.748139 407682.624 -89128.409 -318554.22        0.0
                          0.0        0.0  519.20481 -1011.1852 491.980069 407680.557 -89123.572 -318556.98 1530.39003 -1503.1653
                   -27.224742 1449.76761 -1419.0061 -30.761546 496811.033 229425.807 -726236.84 .370055811 .030283287 -.40032923
                   -.61634038 -.02808703 .644427434        0.0   288.1101    1.72871   1.645347   11.30813   10.76282    .152873
[...]
                        .1E-5    .045228    .017267    .216459    .324381    .849833    .012949    .008054   1312.652   26.25305
                          0.0        0.0        0.0        1.0        0.0
 113000      .113   -258919.6 -79846.956 338766.553  -258919.6 -79846.956 338766.553  -258919.6 -79846.956 338766.553        0.0
                          0.0        0.0 -262142.55 51394.4311 210748.123 -251960.44 -174352.02 426312.457 -313536.98 -159353.69
                   472890.676 -179072.64 -418613.51 597686.148 -179072.64 -418613.51 597686.149 -279.24567 151.462948 127.782722
                   -472.87844 380.752769 92.1256536        0.0   288.1101    1.72871   1.645347   11.30813   10.76282    .152873
                        .1E-5    .045228    .017267    .216459    .324381    .849833    .012949    .008054   1312.652   26.25305
                          0.0        0.0        0.0        1.0        0.0
 113500     .1135  -202004.69 -220555.13 422559.818 -202004.69 -220555.13 422559.818 -202004.69 -220555.13 422559.819        0.0
                          0.0        0.0 -245101.12 -5751.2108  250852.33 -194607.89 -233465.35  428073.24 -239349.91 -256603.54
                   495953.447 18550.4441 -643114.95 624564.504 18550.4447 -643114.95 624564.506 -172.97948 -485.76135 658.740829
                   -498.94978 360.401351 138.548459        0.0   288.1101    1.72871   1.645347   11.30813   10.76282    .152873
                        .1E-5    .045228    .017267    .216459    .324381    .849833    .012949    .008054   1312.652   26.25305
                          0.0        0.0        0.0        1.0        0.0
 114000      .114  -143825.46 -210737.45 354562.905 -143825.46 -210737.45 354562.905 -143825.46 -210737.45 354562.906        0.0
                          0.0        0.0 -210808.03 -120357.26 331165.284 -132463.44   -286830.  419293.44 -90450.764 -451522.55
                    541973.31 66911.9898 -565300.35 498388.363 66911.9904 -565300.35 498388.365 -111.04669 -401.04805 512.094735
                   -517.43934 327.498931 189.940408        0.0   288.1101    1.72871   1.645347   11.30813   10.76282    .152873
                        .1E-5    .045228    .017267    .216459    .324381    .849833    .012949    .008054   1312.652   26.25305
                          0.0        0.0        0.0        1.0        0.0
 114500     .1145  -78719.979 -324844.78 403564.758 -78719.979 -324844.78 403564.758 -78719.979 -324844.78  403564.76        0.0
                          0.0        0.0 -124631.94 -398316.57 522948.505 -67057.308 -333131.94 400189.244 273684.635 -921265.08
                   647580.441   246124.8 -728409.54 482284.737 246124.802 -728409.54 482284.738 72.3162074 -953.86413 881.547926
                   -529.25545 294.036582 235.218833        0.0   288.1101    1.72871   1.645347   11.30813   10.76282    .152873
                        .1E-5    .045228    .017267    .216459    .324381    .849833    .012949    .008054   1312.652   26.25305
                          0.0        0.0        0.0        1.0        0.0
 115000      .115  -9412.0086 -376961.61 386373.618 -9412.0086 -376961.61 386373.618 -9412.0082 -376961.61  386373.62        0.0
                          0.0        0.0 -38677.941 -409961.83 448639.772 .127058E-4 -371231.06  371231.06 371283.892  -858601.6
                   487317.713 367549.602 -763335.23 395785.627 367549.604 -763335.23 395785.628 207.248052 -901.09238 693.844325
                   -532.73873 250.688699 282.049988        0.0   288.1101    1.72871   1.645347   11.30813   10.76282    .152873
                        .1E-5    .045228    .017267    .216459    .324381    .849833    .012949    .008054   1312.652   26.25305
                          0.0        0.0        0.0        1.0        0.0
 115500     .1155  70178.0188 -427969.96 357791.939 70178.0188 -427969.96 357791.939 70178.0191 -427969.96 357791.939        0.0
                          0.0        0.0 75734.6979 -649276.48 573541.781 67057.3081 -400189.24 333131.936 725011.177 -.122282E7
                   497807.083 498147.977  -785761.9  287613.92 498147.977  -785761.9  287613.92  192.36296 13.4929435  -205.8559
                   -526.97147 196.323771 330.647701        0.0   288.1101    1.72871   1.645347   11.30813   10.76282    .152873
                        .1E-5    .045228    .017267    .216459    .324381    .849833    .012949    .008054   1312.652   26.25305
                          0.0        0.0        0.0        1.0        0.0
 116000      .116   134318.28 -398902.59  264584.31  134318.28 -398902.59  264584.31 134318.281 -398902.59 264584.309        0.0
                          0.0        0.0 184918.019 -681568.85 496650.831 132463.443 -419293.44 286829.997  866486.87 -.117822E7
                   311732.813 533220.872  -663486.9 130266.029 533220.871  -663486.9 130266.028 116.044994 264.427043 -380.47204
                   -512.77778 144.551652 368.226129        0.0   288.1101    1.72871   1.645347   11.30813   10.76282    .152873
                        .1E-5    .045228    .017267    .216459    .324381    .849833    .012949    .008054   1312.652   26.25305
                          0.0        0.0        0.0        1.0        0.0
 116500     .1165  205650.938 -457637.47 251986.528 205650.938 -457637.47 251986.528 205650.938 -457637.46 251986.526        0.0
                          0.0        0.0 267779.723  -521059.4 253279.682 194607.888 -428073.24 233465.353 788839.128 -774339.09
                   -14500.041 663288.404 -709623.99 46335.5896 663288.403 -709623.99 46335.5881   7.315065 729.159839 -736.47491
                   -490.71421  89.494079 401.220098        0.0   288.1101    1.72871   1.645347   11.30813   10.76282    .152873
                        .1E-5    .045228    .017267    .216459    .324381    .849833    .012949    .008054   1312.652   26.25305
                          0.0        0.0        0.0        1.0        0.0
 117000      .117   261474.47 -430405.39 168930.917  261474.47 -430405.39 168930.917 261474.469 -430405.39 168930.916        0.0
                          0.0        0.0 306243.558 -368032.79 61789.2308 251960.441 -426312.46 174352.016 674276.345 -429822.02
                   -244454.33 691879.856  -599336.3 -92543.552 691879.854  -599336.3 -92543.553 -146.08512 822.935392 -676.85027
                   -461.17103 37.1334733 424.037552        0.0   288.1101    1.72871   1.645347   11.30813   10.76282    .152873
                        .1E-5    .045228    .017267    .216459    .324381    .849833    .012949    .008054   1312.652   26.25305
                          0.0        0.0        0.0        1.0        0.0
 117500     .1175  305832.962 -360158.37 54325.4118 305832.962 -360158.37 54325.4118 305832.962 -360158.37  54325.411        0.0
                          0.0        0.0 345186.497 -310021.95 -35164.542 303108.891 -414054.45 110945.554 655208.452 -274857.41
                   -380351.04 665991.337 -414483.79 -251507.55 665991.335 -414483.78 -251507.55 -275.75366 689.474715 -413.72106
                   -425.39114 -12.368731 437.759922        0.0   288.1101    1.72871   1.645347   11.30813   10.76282    .152873
                        .1E-5    .045228    .017267    .216459    .324381    .849833    .012949    .008054   1312.652   26.25305
                          0.0        0.0        0.0        1.0        0.0
 118000      .118  343278.895 -375919.24 32640.3509 343278.895 -375919.24 32640.3509 343278.895 -375919.24 32640.3516        0.0
                          0.0        0.0 347760.608 -194261.93 -153498.67 346793.795 -391601.04 44807.2447 542022.539 -40763.258
                   -501259.28 719198.137 -408559.59 -310638.54 719198.137 -408559.59 -310638.54 -237.70752 -117.52294 355.230456
                   -385.41152 -54.004452 439.416021        0.0   288.1101    1.72871   1.645347   11.30813   10.76282    .152873
                        .1E-5    .045228    .017267    .216459    .324381    .849833    .012949    .008054   1312.652   26.25305
                          0.0        0.0        0.0        1.0        0.0
 118500     .1185  377417.631 -308663.26 -68754.374 377417.631 -308663.26 -68754.374 377417.631 -308663.26 -68754.374        0.0
                          0.0        0.0 344670.133 -123290.19 -221379.95 381939.485 -359505.12 -22434.368 467960.321 98089.7576
                   -566050.08 686080.888 -239908.88 -446172.01 686080.888 -239908.88   -446172. -226.48291 38.4284518 188.054459
                    -340.6266  -100.0643 440.690909        0.0   288.1101    1.72871   1.645347   11.30813   10.76282    .152873
                        .1E-5    .045228    .017267    .216459    .324381    .849833    .012949    .008054   1312.652   26.25305
                          0.0        0.0        0.0        1.0        0.0
 119000      .119  398713.646 -303214.73 -95498.919 398713.646 -303214.73 -95498.919 398713.646 -303214.73 -95498.918        0.0
                          0.0        0.0 376913.947 -345175.15 -31738.799 407680.557 -318556.98 -89123.572 722089.095 -313436.35
                   -408652.75 701928.372 -207715.81 -494212.57 701928.373 -207715.81 -494212.56 -103.78886 -622.92075 726.709612
                   -293.26161 -134.86208 428.123684        0.0   288.1101    1.72871   1.645347   11.30813   10.76282    .152873
                        .1E-5    .045228    .017267    .216459    .324381    .849833    .012949    .008054   1312.652   26.25305
                          0.0        0.0        0.0        1.0        0.0
 119500     .1195  412133.346 -227287.31 -184846.04 412133.346 -227287.31 -184846.04 412133.346 -227287.31 -184846.04        0.0
                          0.0        0.0 408663.779 -284088.32 -124575.47  423383.18 -269764.92 -153618.26 692752.095 -159512.85
                   -533239.25 639420.653 -42441.264 -596979.39 639420.654 -42441.267 -596979.39 .630014498 -659.19723 658.567218
                   -243.43753 -169.24564 412.683169        0.0   288.1101    1.72871   1.645347   11.30813   10.76282    .152873
                        .1E-5    .045228    .017267    .216459    .324381    .849833    .012949    .008054   1312.652   26.25305
                          0.0        0.0        0.0        1.0        0.0
  % % % % % %   Suspended simulation;  plot data space exhausted;  SPY SPACE is required.   LIMBUF =  840000.
  % % % % % %   Suspended simulation;  plot data space exhausted;  SPY SPACE is required.   LIMBUF =  840000.
  +++  Time-sharing disabled.   Send  user-keyed interrupt to silence alarm.
   Current values.  INDBUF  INDBEG  LIMBUF  MFLUSH  NUMDCD  KCARD1  KCARD2
                    839994      50  840000    1007     230       1     231
Plot timespan now in memory (in sec) = 1.04985997E-01   1.19985000E-01
   ++++  Begin plot-data copy from memory to disk.   MFLUSH, INDBUF, N4, Tbeg,  Tend = 1008  839994       1  -1.00000E+00
1.00000E+19
 120000       .12  431180.448 -255892.71 -175287.74 431180.448 -255892.71 -175287.74 431180.448 -255892.71 -175287.74        0.0
                          0.0        0.0 444294.662 -401396.49 -42898.178 428660.705 -214330.35 -214330.35 845691.148 -358498.31
                   -487192.84 687073.156 -80604.965 -606468.19 687073.156 -80604.966 -606468.19  24.570488 -82.919809 58.3493217
                   -191.87142 -202.32702 394.198415        0.0   288.1101    1.72871   1.645347   11.30813   10.76282    .152873
                        .1E-5    .045228    .017267    .216459    .324381    .849833    .012949    .008054   1312.652   26.25305
                          0.0        0.0        0.0        1.0        0.0

Extrema of output variables follow.   Order and column positioning are the same as for the preceding time-step loop output.
Variable maxima :  450216.942  694088.39 577720.704 450216.942  694088.39 577720.704 450216.941 694088.393 577720.705        0.0
                          0.0        0.0 589366.003 982730.303 863460.156 428660.705 428660.703 428660.703 .1358651E7 .1563656E7
                   .1119765E7 878244.576 .1074416E7 848227.763 878244.578 .1074416E7 848227.765 389.199737 2057.40481 1771.67094
                   111.145739 450.307999 492.826298        0.0   288.1101    1.72871   1.645347   11.30813   10.76282    .152873
                        .1E-5    .045228    .017267    .216459    .324381    .849833    .012949    .008054   1312.652   26.25305
                          0.0        0.0        0.0        1.0        0.0
Times of maxima :     .060306    .047456    .054375    .060306    .047456    .054375    .060306    .047456    .054375        0.0
                          0.0        0.0    .060119    .048449    .073831        0.0    .006667    .113333    .078501    .066809
                      .072859    .059028    .047451    .091536    .059028    .047451    .091536     .05432    .061047    .048124
                      .104857    .052366    .058367        0.0        0.0        0.0        0.0        0.0        0.0        0.0
                          0.0        0.0        0.0        0.0        0.0        0.0        0.0        0.0        0.0        0.0
                          0.0        0.0        0.0        0.0        0.0
Variable minima :  -452650.41 -548008.02 -538735.58 -452650.41 -548008.02 -538735.58 -452650.41 -548008.02 -538735.58        0.0
                          0.0        0.0 -573801.02 -986135.69 -852226.93 -428660.71  -428660.7  -428660.7 -.154884E7  -.18046E7
                   -.119369E7  -.10093E7 -.107815E7 -872849.99  -.10093E7 -.107815E7 -872849.99 -1034.2223 -1842.6354   -1370.68
                   -633.08834 -239.37295 -206.51433        0.0   288.1101    1.72871   1.645347   11.30813   10.76282    .152873
                        .1E-5    .045228    .017267    .216459    .324381    .849833    .012949    .008054   1312.652   26.25305
                          0.0        0.0        0.0        1.0        0.0
Times of minima :       .0495    .056257    .103809      .0495    .056257    .103809      .0495    .056257    .103809        0.0
                          0.0        0.0    .048526    .055286    .062202        .01    .016667    .103333    .048453    .055272
                      .061186    .047466    .054402    .061383    .047466    .054402    .061383     .04737    .054128     .05641
                      .054769    .101717    .108574        0.0        0.0        0.0        0.0        0.0        0.0        0.0
                          0.0        0.0        0.0        0.0        0.0        0.0        0.0        0.0        0.0        0.0
                          0.0        0.0        0.0        0.0        0.0

Blank card terminating all plot cards.            |BLANK PLOT

Memory storage figures for the preceding, now-completed data case.  -------------------------------  Present   Program
A value of  "-9999"  indicates that no figure is available.         28-Feb-22  20:03:14              figure     limit  (name)
     Size List 1.   Number of electric network nodes.                                                   37      6000  (LBUS)
     Size List 2.   Number of electric network branches.                                                39     10000  (LBRNCH)
     Size List 3.   Number of data values in R, L, C tables.                                            45    192000  (LDATA)
     Size List 4.   Number of electric network sources.                                                  3       900  (LEXCT)
     Size List 5.   Storage for [Y] and triangularized [Y].   No. times =    3     Factors =    66     189    420000  (LYMAT)
     Size List 6.   Number of entries in switch table.                  No. flops = 18                  21      1200  (LSWTCH)
     Size List 7.   Number of distinct ALPHANUMERIC data names plus program SPY variables.              25     15000  (LSIZE7)
     Size List 8.   History points of distributed lines.                                              3456    120000  (LPAST)
     Size List 9.   Number of nonlinear elements.                                                        0      2250  (LNONL)
     Size List 10.  Points of nonlinear characteristics.                                                 0      3800  (LCHAR)
     Size List 11.  Number of Type-59 S.M. outputs.                                                      0       720  (LSMOUT)
     Size List 12.  Total number of EMTP output variables.                                              55      2000  (LSIZ12)
     Size List 13.  Working space for batch/SPY plotting.                                            -9999     72800  (LSIZ13)
     Size List 14.  S.M./U.M. connections to TACS.                                                   -9999       510  (LBSTAC)
     Size List 15.  Character storage in bytes for MODELS.                                            3299     90000  (LCTACS)
     Size List 16.  Total number of Type-59 S.M. masses.                                                 0       800  (LIMASS)
     Size List 17.  Number of Type-59 Synchronous machines.                                              0        90  (LSYN)
     Size List 18.  Branch and switch power/energy outputs.                                              0       254  (MAXPE)
     Size List 19.  Total floating-point TACS table space.                                              23    120000  (LTACST)
     Size List 20.  Non-copied recursive convolution data.                                               0    100000  (LFSEM)
     Size List 21.  Total modal/phase [T] matrix storage.                                                9      3000  (LFD)
     Size List 22.  Total recursive convolution history.                                                 0     15000  (LHIST)
     Size List 23.  Giant vectors for renumbering, phasors;  also extrema accumulation.                  93    192000  (LSIZ23)
     Size List 24.  Peak phases of compensation for data.                                                0       120  (LCOMP)
     Size List 25.  Total table space for all U.M usage.                                             -9999     45000  (LSPCUM)
     Size List 26.  Square of max number of coupled phases.                                              9    260000  (LSIZ26)
     Size List 27.  Maximum number of MODELS top variables.                                             44       600  (LSIZ27)
     Size List 28.  MODELS.  Total work space is divided into INTEGER and REAL.  1st, REAL:           1780    210000  (LRTACS)
                             Second  and last,  statistics for INTEGER work space.                    6838         0  (LITACS)
     Size List 29.  RAM disk used by "TAPSAV" table saving (limit is "LABCOM" size LTLABL).          -9999       600  (LSIZ29)
     Size List 30.  Taku Noda frequency-dependent circuits.                                              0        19  (LSIZ30)
Timing figures characterizing central processor (CP) solution speed.  ----------------------------   CP sec  Wait sec  Real sec
     Data input time (through blank card ending branches) ....                                       0.063     0.000     0.063
     Node renumbering and phasor solution  ....                                                      0.000     0.000     0.000
     After phasor solution, but before time-step loop  ....                                          0.000     0.000     0.000
     Integration of equations (time-step loop)  ....                                                 1.031     0.000     1.031
     Plotting or STATISTICS termination overlays ....                                                0.000     0.000     0.000
                                                                                                    ---------------------------
                                                                                          Totals      1.094     0.000     1.094

