   ---   236   cards of disk file read into card cache cells  1   onward.
 Comment card is ignored.      |C   LBUS  LBRNCH   LDATA   LEXCT   LYMAT  LSWTCH
 Limit CIDEAL cards =   200    |CARDS        200 { Limit of CIDEAL will be 2 mor
 1st card (Lists  1-10).       |    6000   10000  192000     900  420000    120
 Comment card is ignored.      |C LSMOUT  LSIZ12  LSIZ13  LBSTAC  LCTACS  LIMASS
 2nd card (Lists 11-20).       |     720    2000   72800     510   90000     80
 Comment card is ignored.      |C    LFD   LHIST  LSIZ23   NCOMP  LSPCUM  LSIZ26
 3rd card (Lists 21-30).       |    3000   15000  192000     120   45000  26000
 4th card (Lists 31-32).       |     200     300     { Optional card for Lists
 Comment card is ignored.      |C  LWORK  LMARTI
 Supplemental offsets.         |  840000     742
 <===> Done with  "/"-card sorting by data class.    Remember that the source file appears different from interpreted input data.
Alternative Transients Program (ATP),  GNU Linux or DOS.  All rights reserved by Can/Am user group of Portland, Oregon, USA.
 Date (dd-mth-yy) and time of day (hh.mm.ss) = 28-Feb-22  19:19:16   Name of disk plot file is  tp\bdfinalisima\energizacion684.pl4
Consult the 860-page ATP Rule Book of the Can/Am EMTP User Group in Portland,  Oregon, USA.  Source code date is 12 August 2008.
Total size of LABCOM tables = 10913436 INTEGER words.  31 VARDIM  List Sizes follow:  6002  10K  192K  900  420K  1200  15K
  120K  2250  3800  720  2K  72800  510  90K  800  90  254  120K  100K  3K  15K  192K  120  45K  260K  600  210K  1100  60  200
--------------------------------------------------+--------------------------------------------------------------------------------
Descriptive interpretation of input data cards.   |  Input data card images are shown below, all 80 columns, character by character
                                                  0         1         2         3         4         5         6         7         8
                                                  012345678901234567890123456789012345678901234567890123456789012345678901234567890
--------------------------------------------------+--------------------------------------------------------------------------------
Comment card.   NUMDCD = 1.                       |C data:D:\ATP\BDFINALISIMA\ENERGIZACION684.ATP
Marker card preceding new EMTP data case.         |BEGIN NEW DATA CASE
Comment card.   NUMDCD = 3.                       |C --------------------------------------------------------
Comment card.   NUMDCD = 4.                       |C Generated by ATPDRAW  febrero, lunes 28, 2022
Comment card.   NUMDCD = 5.                       |C A Bonneville Power Administration program
Comment card.   NUMDCD = 6.                       |C by H. K. Høidalen at SEfAS/NTNU - NORWAY 1994-2016
Comment card.   NUMDCD = 7.                       |C --------------------------------------------------------
Comment card.   NUMDCD = 8.                       |C  dT  >< Tmax >< Xopt >< Copt ><Epsiln>
Misc. data.     1.000E-06   1.200E-01   5.000E+01 |   1.E-6     .12     50.
Misc. data.    500    1  0  1  1  0  0  0  0  0   |     500       1       0       1       1       0       0       0       0
  ///  Warning.  Nonzero XOPT or COPT differs from the power frequency of  6.00000000E+01  Hz.   Did the user really want this?
No TACS data,  but MODELS data begins (next).     |MODELS
      Another ordinary MODELS data card.          |OUTPUT
      Another ordinary MODELS data card.          |  AnVol
      Another ordinary MODELS data card.          |  LONG
      Another ordinary MODELS data card.          |  R0F
      Another ordinary MODELS data card.          |  R1F
      Another ordinary MODELS data card.          |  X0F
      Another ordinary MODELS data card.          |  X1F
      Another ordinary MODELS data card.          |  RDIVX
      Another ordinary MODELS data card.          |  RINSER
      Another ordinary MODELS data card.          |  CLOSE1
      Another ordinary MODELS data card.          |  RPpos
      Another ordinary MODELS data card.          |  RPcero
      Another ordinary MODELS data card.          |  LPpos
      Another ordinary MODELS data card.          |  LPcero
      Another ordinary MODELS data card.          |  CPpos
      Another ordinary MODELS data card.          |  CPcero
      Another ordinary MODELS data card.          |  Xp
      Another ordinary MODELS data card.          |  CR
      Another ordinary MODELS data card.          |  SIMET
      Another ordinary MODELS data card.          |  ENC1
      Another ordinary MODELS data card.          |  ENC2
      Another ordinary MODELS data card.          |  ENC1AS
      Another ordinary MODELS data card.          |  ENC2AS
      Another ordinary MODELS data card.          |MODEL DEFAULT
      Another ordinary MODELS data card.          |DATA AnVol,LONG,R0F,R1F,X0F,X1F,RDIVX,RINSER,CLOSE1,RPpos,RPcero,LPpos,LPcero
      Another ordinary MODELS data card.          |OUTPUT o1,o2,o3, o4, o5, o6, o7, o8, o9, o10, o11, o12, o13
      Another ordinary MODELS data card.          |VAR o1,o2,o3, o4, o5, o6, o7, o8, o9, o10, o11, o12, o13
      Another ordinary MODELS data card.          |INIT
      Another ordinary MODELS data card.          |  o1:=AnVol
      Another ordinary MODELS data card.          |  o2:=LONG
      Another ordinary MODELS data card.          |  o3:=R0F
      Another ordinary MODELS data card.          |  o4:=R1F
      Another ordinary MODELS data card.          |  o5:=X0F
      Another ordinary MODELS data card.          |  O6:=X1F
      Another ordinary MODELS data card.          |  o7:=RDIVX
      Another ordinary MODELS data card.          |  o8:=RINSER
      Another ordinary MODELS data card.          |  o9:=CLOSE1
      Another ordinary MODELS data card.          |  o10:=RPpos
      Another ordinary MODELS data card.          |  o11:=RPcero
      Another ordinary MODELS data card.          |  o12:=LPpos
      Another ordinary MODELS data card.          |  o13:=LPcero
      Another ordinary MODELS data card.          |
      Another ordinary MODELS data card.          |ENDINIT
      Another ordinary MODELS data card.          |EXEC
      Another ordinary MODELS data card.          |ENDEXEC
      Another ordinary MODELS data card.          |ENDMODEL
      Another ordinary MODELS data card.          |MODEL DEFAULT1
      Another ordinary MODELS data card.          |DATA CPpos,CPcero,Xp,CR,SIMET,ENC1,ENC2,ENC1AS,ENC2AS
      Another ordinary MODELS data card.          |OUTPUT o1, o2, o3, o4, o5, o6, o7, o8, o9
      Another ordinary MODELS data card.          |VAR o1, o2, o3, o4, o5, o6, o7, o8, o9
      Another ordinary MODELS data card.          |INIT
      Another ordinary MODELS data card.          |  o1:=CPpos
      Another ordinary MODELS data card.          |  o2:=CPcero
      Another ordinary MODELS data card.          |  o3:=Xp
      Another ordinary MODELS data card.          |  o4:=CR
      Another ordinary MODELS data card.          |  o5:=SIMET
      Another ordinary MODELS data card.          |  o6:=ENC1
      Another ordinary MODELS data card.          |  o7:=ENC2
      Another ordinary MODELS data card.          |  o8:=ENC1AS
      Another ordinary MODELS data card.          |  o9:=ENC2AS
      Another ordinary MODELS data card.          |
      Another ordinary MODELS data card.          |ENDINIT
      Another ordinary MODELS data card.          |EXEC
      Another ordinary MODELS data card.          |ENDEXEC
      Another ordinary MODELS data card.          |ENDMODEL
      Another ordinary MODELS data card.          |USE DEFAULT AS DEFAULT
      Another ordinary MODELS data card.          |DATA
      Another ordinary MODELS data card.          |  AnVol:=      0.0
      Another ordinary MODELS data card.          |  LONG:=  137.158
      Another ordinary MODELS data card.          |  R0F:= 2.483821
      Another ordinary MODELS data card.          |  R1F:= 3.271883
      Another ordinary MODELS data card.          |  X0F:=  8.60651
      Another ordinary MODELS data card.          |  X1F:= 11.33717
      Another ordinary MODELS data card.          |  RDIVX:= 0.288598
      Another ordinary MODELS data card.          |  RINSER:=     400.
      Another ordinary MODELS data card.          |  CLOSE1:= 0.048243
      Another ordinary MODELS data card.          |  RPpos:= 0.026684
      Another ordinary MODELS data card.          |  RPcero:= 0.235596
      Another ordinary MODELS data card.          |  LPpos:= 0.391479
      Another ordinary MODELS data card.          |  LPcero:=  1.06904
      Another ordinary MODELS data card.          |OUTPUT
      Another ordinary MODELS data card.          |  AnVol:=o1
      Another ordinary MODELS data card.          |  LONG:=o2
      Another ordinary MODELS data card.          |  R0F:=o3
      Another ordinary MODELS data card.          |  R1F:=o4
      Another ordinary MODELS data card.          |  X0F:=o5
      Another ordinary MODELS data card.          |  X1F:=o6
      Another ordinary MODELS data card.          |  RDIVX:=o7
      Another ordinary MODELS data card.          |  RINSER:=o8
      Another ordinary MODELS data card.          |  CLOSE1:=o9
      Another ordinary MODELS data card.          |  RPpos:=o10
      Another ordinary MODELS data card.          |  RPcero:=o11
      Another ordinary MODELS data card.          |  LPpos:=o12
      Another ordinary MODELS data card.          |  LPcero:=o13
      Another ordinary MODELS data card.          |ENDUSE
      Another ordinary MODELS data card.          |USE DEFAULT1 AS DEF
      Another ordinary MODELS data card.          |DATA
      Another ordinary MODELS data card.          |  CPpos:=  0.01335
      Another ordinary MODELS data card.          |  CPcero:= 0.008381
      Another ordinary MODELS data card.          |  Xp:= 2674.486
      Another ordinary MODELS data card.          |  CR:= 53.48971
      Another ordinary MODELS data card.          |  SIMET:=       1.
      Another ordinary MODELS data card.          |  ENC1:=       1.
      Another ordinary MODELS data card.          |  ENC2:=      0.0
      Another ordinary MODELS data card.          |  ENC1AS:=      0.0
      Another ordinary MODELS data card.          |  ENC2AS:=      0.0
      Another ordinary MODELS data card.          |OUTPUT
      Another ordinary MODELS data card.          |  CPpos:=o1
      Another ordinary MODELS data card.          |  CPcero:=o2
      Another ordinary MODELS data card.          |  Xp:=o3
      Another ordinary MODELS data card.          |  CR:=o4
      Another ordinary MODELS data card.          |  SIMET:=o5
      Another ordinary MODELS data card.          |  ENC1:=o6
      Another ordinary MODELS data card.          |  ENC2:=o7
      Another ordinary MODELS data card.          |  ENC1AS:=o8
      Another ordinary MODELS data card.          |  ENC2AS:=o9
      Another ordinary MODELS data card.          |ENDUSE
      Another ordinary MODELS data card.          |RECORD
      Another ordinary MODELS data card.          |  DEFAULT.o1 AS AnVOL
      Another ordinary MODELS data card.          |  DEFAULT.o2 AS LONG
      Another ordinary MODELS data card.          |  DEFAULT.o3 AS R0F
      Another ordinary MODELS data card.          |  DEFAULT.o4 AS R1F
      Another ordinary MODELS data card.          |  DEFAULT.o5 AS X0F
      Another ordinary MODELS data card.          |  DEFAULT.o6 AS X1F
      Another ordinary MODELS data card.          |  DEFAULT.o7 AS RDIVX
      Another ordinary MODELS data card.          |  DEFAULT.o8 AS RINSER
      Another ordinary MODELS data card.          |  DEFAULT.o9 AS CLOSE1
      Another ordinary MODELS data card.          |  DEFAULT.o10 AS RPpos
      Another ordinary MODELS data card.          |  DEFAULT.o11 AS RPcero
      Another ordinary MODELS data card.          |  DEFAULT.o12 AS LPpos
      Another ordinary MODELS data card.          |  DEFAULT.o13 AS LPcero
      Another ordinary MODELS data card.          |  DEF.o1 AS CPpos
      Another ordinary MODELS data card.          |  DEF.o2 AS CPcero
      Another ordinary MODELS data card.          |  DEF.o3 AS Xp
      Another ordinary MODELS data card.          |  DEF.o4 AS CR
      Another ordinary MODELS data card.          |  DEF.o5 AS SIMET
      Another ordinary MODELS data card.          |  DEF.o6 AS ENC1
      Another ordinary MODELS data card.          |  DEF.o7 AS ENC2
      Another ordinary MODELS data card.          |  DEF.o8 AS ENC1AS
      Another ordinary MODELS data card.          |  DEF.o9 AS ENC2AS
Termination of data for Laurent Dube`s MODELS.    |ENDMODELS
Comment card.   NUMDCD = 153.                     |C        1         2         3         4         5         6         7         8
Comment card.   NUMDCD = 154.                     |C 345678901234567890123456789012345678901234567890123456789012345678901234567890
Optional blank card follows last of MODELS data.  |BLANK MODELS
Comment card.   NUMDCD = 156.                     |C < n1 >< n2 ><ref1><ref2>< R  >< L  >< C  >
Comment card.   NUMDCD = 157.                     |C < n1 >< n2 ><ref1><ref2>< R  >< A  >< B  ><Leng><><>0
1st of coupled R-L.   2.48380E+00  2.73954E-02    |51IFUENASB1A              2.48388.6065095929
2nd coil. 3.272E+00 3.609E-02 0.000E+00 0.000E+00 |52IFUENBSB1B              3.271911.337169253
Zca, Zcc=-2.627E-01-2.897E-03 3.009E+00 3.319E-02 |53IFUENCSB1C
Series R-L-C.   1.000E+09  0.000E+00  0.000E+00   |  SB1A                      1.E9                                               0
Series R-L-C.   1.000E+09  0.000E+00  0.000E+00   |  SB1B                      1.E9                                               0
Series R-L-C.   1.000E+09  0.000E+00  0.000E+00   |  SB1C                      1.E9                                               0
Series R-L-C.   2.675E+01  4.256E+00  0.000E+00   |  RSNSHA                  26.7451337.2                                         0
Series R-L-C.   2.675E+01  4.256E+00  0.000E+00   |  RSNSHB                  26.7451337.2                                         0
Series R-L-C.   2.675E+01  4.256E+00  0.000E+00   |  RSNSHC                  26.7451337.2                                         0
Series R-L-C.   1.000E+09  0.000E+00  0.000E+00   |  RSNNHA                    1.E9                                               0
Series R-L-C.   1.000E+09  0.000E+00  0.000E+00   |  RSNNHB                    1.E9                                               0
Series R-L-C.   1.000E+09  0.000E+00  0.000E+00   |  RSNNHC                    1.E9                                               0
Series R-L-C.   1.000E+09  0.000E+00  0.000E+00   |  SE2A                      1.E9                                               0
Series R-L-C.   1.000E+09  0.000E+00  0.000E+00   |  SE2B                      1.E9                                               0
Series R-L-C.   1.000E+09  0.000E+00  0.000E+00   |  SE2C                      1.E9                                               0
Series R-L-C.   2.500E+02  0.000E+00  3.000E-10   |  X0001B                    250.       .0003                                   0
Series R-L-C.   2.500E+02  0.000E+00  3.000E-10   |  X0002B                    250.       .0003                                   0
Series R-L-C.   1.000E-06  0.000E+00  0.000E+00   |  X0001ALN1A               1.E-6                                               0
Series R-L-C.   1.000E-06  0.000E+00  0.000E+00   |  SB1A  X0002A             1.E-6                                               0
Series R-L-C.   1.000E-06  0.000E+00  0.000E+00   |  X0001BLN1B               1.E-6                                               0
Series R-L-C.   1.000E-06  0.000E+00  0.000E+00   |  SB1B  X0002B             1.E-6                                               0
Series R-L-C.   1.000E-06  0.000E+00  0.000E+00   |  X0001CLN1C               1.E-6                                               0
Series R-L-C.   1.000E-06  0.000E+00  0.000E+00   |  SB1C  X0002C             1.E-6                                               0
Series R-L-C.   4.000E+02  0.000E+00  0.000E+00   |  XX0005X0002A              400.                                               0
Series R-L-C.   4.000E+02  0.000E+00  0.000E+00   |  XX0003X0002B              400.                                               0
Series R-L-C.   4.000E+02  0.000E+00  0.000E+00   |  XX0004X0002C              400.                                               0
Series R-L-C.   2.500E+02  0.000E+00  3.000E-10   |  X0001A                    250.       .0003                                   0
Series R-L-C.   1.000E+06  0.000E+00  0.000E+00   |  X0001AX0002A              1.E6                                               0
Series R-L-C.   1.000E+06  0.000E+00  0.000E+00   |  X0001BX0002B              1.E6                                               0
Series R-L-C.   1.000E+06  0.000E+00  0.000E+00   |  X0001CX0002C              1.E6                                               0
Series R-L-C.   2.500E+02  0.000E+00  3.000E-10   |  X0002C                    250.       .0003                                   0
Series R-L-C.   2.500E+02  0.000E+00  3.000E-10   |  X0002A                    250.       .0003                                   0
Series R-L-C.   2.500E+02  0.000E+00  3.000E-10   |  X0001C                    250.       .0003                                   0
Series R-L-C.   1.250E+02  0.000E+00  6.000E-10   |  X0001AX0002A              125.       .0006                                   0
Series R-L-C.   1.250E+02  0.000E+00  6.000E-10   |  X0001BX0002B              125.       .0006                                   0
Series R-L-C.   1.250E+02  0.000E+00  6.000E-10   |  X0001CX0002C              125.       .0006                                   0
 2.356E-01 1.069E+00 8.380E-03 6.372E+02 7.324E-04|-1LN1A  VFF2A              .2356 1.069.00838137.16 0 0                         0
 2.668E-02 3.915E-01 1.335E-02 3.055E+02 5.594E-04|-2LN1B  VFF2B             .02668.39148.01335137.16 0 0                         0
3rd or later transposed distributed phase.        |-3LN1C  VFF2C                                                                  0
Blank card ending branches.  IBR, NTOT = 39  31   |BLANK BRANCH
Comment card.   NUMDCD = 198.                     |C < n 1>< n 2>< Tclose ><Top/Tde ><   Ie   ><Vf/CLOP ><  type  >
Switch.  -1.00E+00  1.00E+01  0.00E+00  0.00E+00  |  LN1A  COMPA        -1.       10.                                             0
Switch.  -1.00E+00  1.00E+01  0.00E+00  0.00E+00  |  LN1B  COMPB        -1.       10.                                             0
Switch.  -1.00E+00  1.00E+01  0.00E+00  0.00E+00  |  LN1C  COMPC        -1.       10.                                             0
Switch.  -1.00E+00  1.00E+01  0.00E+00  0.00E+00  |  VFF2A RSNNHA       -1.       10.                                             0
Switch.  -1.00E+00  1.00E+01  0.00E+00  0.00E+00  |  VFF2B RSNNHB       -1.       10.                                             0
Switch.  -1.00E+00  1.00E+01  0.00E+00  0.00E+00  |  VFF2C RSNNHC       -1.       10.                                             0
Switch.   2.00E+00 -1.00E+00  0.00E+00  0.00E+00  |  VFF2A SE2A          2.       -1.                                             0
Switch.   2.00E+00 -1.00E+00  0.00E+00  0.00E+00  |  VFF2B SE2B          2.       -1.                                             0
Switch.   2.00E+00 -1.00E+00  0.00E+00  0.00E+00  |  VFF2C SE2C          2.       -1.                                             0
Switch.   4.82E-02  1.00E+03  0.00E+00  0.00E+00  |  X0001BXX0003.048242909      1.E3                                             0
Switch.   4.82E-02  1.00E+03  0.00E+00  0.00E+00  |  X0001CXX0004.048242909      1.E3                                             0
Switch.   5.57E-02  1.00E+03  0.00E+00  0.00E+00  |  XX0005X0002A.055742909      1.E3                                             0
Switch.   5.57E-02  1.00E+03  0.00E+00  0.00E+00  |  XX0003X0002B.055742909      1.E3                                             0
Switch.   5.57E-02  1.00E+03  0.00E+00  0.00E+00  |  XX0004X0002C.055742909      1.E3                                             0
Switch.   4.82E-02  1.00E+03  0.00E+00  0.00E+00  |  X0001AXX0005.048242909      1.E3                                             0
Permanently-closed switch used for metering.      |  VFUENAIFUENA                                        MEASURING                1
Permanently-closed switch used for metering.      |  VFUENBIFUENB                                        MEASURING                1
Permanently-closed switch used for metering.      |  VFUENCIFUENC                                        MEASURING                1
Permanently-closed switch used for metering.      |  COMPA RSNSHA                                        MEASURING                1
Permanently-closed switch used for metering.      |  COMPB RSNSHB                                        MEASURING                1
Permanently-closed switch used for metering.      |  COMPC RSNSHC                                        MEASURING                1
Blank card ending switches.   KSWTCH = 21.        |BLANK SWITCH
Comment card.   NUMDCD = 221.                     |C < n 1><>< Ampl.  >< Freq.  ><Phase/T0><   A1   ><   T1   >< TSTART >< TSTOP  >
Source.   4.29E+05  5.00E+01  0.00E+00 -1.00E+00  |14VFUENA  428660.705       50.                                     -1.      100.
Source.   4.29E+05  5.00E+01 -1.20E+02 -1.00E+00  |14VFUENB  428660.705       50.     -120.                           -1.      100.
Source.   4.29E+05  5.00E+01 -2.40E+02 -1.00E+00  |14VFUENC  428660.705       50.     -240.                           -1.      100.
Blank card ends electric sources.  KCONST = 3     |BLANK SOURCE
Pi-equivalent branches of distributed circuits are added to the table of List Size 3 between indices  40   and  45.

Sinusoidal steady-state phasor solution, branch by branch.   All flows are away from a bus,  and the real part,  magnitude,  or  "P"
is printed above the imaginary part,  the angle,  or  "Q".   The first solution frequency  =  5.00000000E+01  Hertz.
  Bus K                        Phasor  node  voltage              Phasor  branch  current               Power flow       Power loss
             Bus M         Rectangular            Polar          Rectangular            Polar            P  and  Q        P  and  Q

 IFUENA                    428660.705       428660.705      .42980381600874  .44587590065208      92120.003390999  .32523556126027
                                  0.0              0.0       .1186338843949       15.4304999       -25426.8422608        1.1269448

            SB1A      428660.64369732   428660.6437296      -.4298038160087  .44587590065208      -92119.67815544
                      -5.260916814023       -0.0007032      -.1186338843949     -164.5695001      25427.969205577

 IFUENB                  -214330.3525       428660.705      -.1121619503609  .44587590065481      92120.003391062  .32523556126733
                      -371231.0601341     -120.0000000      -.4315379655094     -104.5695001      -25426.84226277        1.1269448

            SB1B      -214334.8779363   428660.6437296      .11216195036095  .44587590065481       -92119.6781555
                      -371228.3765861     -120.0007032      .43153796550937       75.4304999      25427.969207548

 IFUENC                  -214330.3525       428660.705      -.3176418656409  .44587590065277       92120.00339111   .3252355612631
                      371231.06013415      120.0000000       .3129040811097      135.4304999      -25426.84226096        1.1269448

            SB1C      -214325.7657611   428660.6437296      .31764186564087  .44587590065277      -92119.67815555
                      371233.63750288      119.9992968      -.3129040811097      -44.5695001      25427.969205732

 SB1A                 428660.64369732   428660.6437296       .4286606437E-3  .42866064373E-3      91.874973741339  91.874973741339
                      -5.260916814023       -0.0007032      -.5260916814E-8       -0.0007032      .6056285573E-19        0.0000000

            TERRA                 0.0              0.0      -.4286606437E-3  .42866064373E-3                  0.0
                                  0.0              0.0       .5260916814E-8      179.9992968                  0.0

 SB1B                 -214334.8779363   428660.6437296      -.2143348779E-3  .42866064373E-3      91.874973741339  91.874973741339
                      -371228.3765861     -120.0007032      -.3712283766E-3     -120.0007032      .1474514955E-14        0.0000000

            TERRA                 0.0              0.0      .21433487794E-3  .42866064373E-3                  0.0
                                  0.0              0.0      .37122837659E-3       59.9992968                  0.0

 SB1C                 -214325.7657611   428660.6437296      -.2143257658E-3  .42866064373E-3      91.874973741339  91.874973741339
                      371233.63750288      119.9992968       .3712336375E-3      119.9992968      .3535366444E-14        0.0000000

            TERRA                 0.0              0.0      .21432576576E-3  .42866064373E-3                  0.0
                                  0.0              0.0      -.3712336375E-3      -60.0007032                  0.0

 RSNSHA               -229.0930798769  2615.0169002865      1.9438682894753  1.9552004297532      51.120509614983  51.120509614983
                      2604.9625236338       95.0259389      .21020179276017        6.1717446      2555.9299105312     2555.9299105

            TERRA                 0.0              0.0      -1.943868289475  1.9552004297532                  0.0
                                  0.0              0.0      -.2102017927602     -173.8282554                  0.0

 RSNSHB               2370.5102613117  2615.0169002865      -.7898940522863  1.9552004297533      51.120509614984  51.120509614984
                      -1104.080834812      -24.9740611      -1.788540216677     -113.8282554      2555.9299105312     2555.9299105

            TERRA                 0.0              0.0      .78989405228634  1.9552004297533                  0.0
                                  0.0              0.0      1.7885402166767       66.1717446                  0.0

 RSNSHC               -2141.417181435  2615.0169002864      -1.153974237189  1.9552004297532      51.120509614982  51.120509614982
                      -1500.881688821     -144.9740611      1.5783384239165      126.1717446      2555.9299105311     2555.9299105

            TERRA                 0.0              0.0       1.153974237189  1.9552004297532                  0.0
                                  0.0              0.0      -1.578338423917      -53.8282554                  0.0

 RSNNHA               -229.8632081482  2655.9290269847      -.2298632081E-6   .2655929027E-5      .00352697949819  .00352697949819
                       2645.963322104       94.9650005      .26459633221E-5       94.9650005      -.471162077E-20        0.0000000

            TERRA                 0.0              0.0      .22986320815E-6   .2655929027E-5                  0.0
                                  0.0              0.0      -.2645963322E-5      -85.0349995                  0.0

 RSNNHB                2406.403058498  2655.9290269847      .24064030585E-5   .2655929027E-5      .00352697949819  .00352697949819
                        -1123.9142834      -25.0349995      -.1123914283E-5      -25.0349995      -.671273611E-19        0.0000000

            TERRA                 0.0              0.0      -.2406403058E-5   .2655929027E-5                  0.0
                                  0.0              0.0      .11239142834E-5      154.9650005                  0.0

 RSNNHC                -2176.53985035  2655.9290269846       -.217653985E-5   .2655929027E-5      .00352697949819  .00352697949819
                      -1522.049038704     -145.0349995      -.1522049039E-5     -145.0349995      -.831151079E-19        0.0000000

            TERRA                 0.0              0.0      .21765398503E-5   .2655929027E-5                  0.0
                                  0.0              0.0      .15220490387E-5       34.9650005                  0.0

 X0001B               2370.5102611647  2615.0169003268      .10406243127E-3  .24645953642E-3      .75927878868E-5  .75927878868E-5
                      -1104.080835224      -24.9740611      .22341287674E-3       65.0245889      -.3222479264083       -0.3222479

            TERRA                 0.0              0.0      -.1040624313E-3  .24645953642E-3                  0.0
                                  0.0              0.0      -.2234128767E-3     -114.9754111                  0.0

 X0002B               -214334.8779362  428660.64372918      .03498697423604  .04040031386547      .20402317005343  .20402317005343
                      -371228.3765856     -120.0007032      -.0202014106991      -30.0020532      -8659.012271812    -8659.0122718

            TERRA                 0.0              0.0       -.034986974236  .04040031386547                  0.0
                                  0.0              0.0      .02020141069913      149.9979468                  0.0

 X0001A               -229.0930794473  2615.0169003268      .42962915358657   .4366979340532      52.713395970281  .95352542799E-7
                       2604.962523712       95.0259389       .0782551978773       10.3230226       568.5477842258              0.0

            LN1A      -229.0930798769  2615.0169002865      -.4296291535866   .4366979340532      -52.71339587493
                      2604.9625236338       95.0259389      -.0782551978773     -169.6769774      -568.5477842258

 SB1A                 428660.64369732   428660.6437296      .42939791455865  .44548464478191      92032.681166987  .99228287809E-7
                      -5.260916814023       -0.0007032      .11863388937883       15.4443906      -25427.96920608              0.0

            X0002A    428660.64369689  428660.64372917      -.4293979145586  .44548464478191      -92032.68116689
                      -5.260916932657       -0.0007032      -.1186338893788     -164.5556094      25427.969206077

 X0001B               2370.5102611647  2615.0169003268      -.1470434654038  .43669786829586      52.713526171859  .95352514093E-7
                      -1104.080835224      -24.9740611      -.4111973339604     -109.6769635      568.54768580701        0.0000000

            LN1B      2370.5102613117  2615.0169002865      .14704346540384  .43669786829586      -52.71352607651
                      -1104.080834812      -24.9740611      .41119733396044       70.3230365       -568.547685807

 SB1B                 -214334.8779363   428660.6437296      -.1119333319366  .44543725039203      92022.078916326  .99207170479E-7
                      -371228.3765861     -120.0007032      -.4311441443861     -104.5537818      -25428.19922961              0.0

            X0002B    -214334.8779362  428660.64372918       .1119333319366  .44543725039203      -92022.07891623
                      -371228.3765856     -120.0007032      .43114414438605       75.4462182      25428.199229615

 X0001C               -2141.417181717  2615.0169003267      -.2825854608091  .43669784593043      52.713302853302  .95352504323E-7
                      -1500.881688488     -144.9740611      .33294213608315      130.3230143      568.54767714377              0.0

            LN1C      -2141.417181435  2615.0169002864      .28258546080906  .43669784593043      -52.71330275795
                      -1500.881688821     -144.9740611      -.3329421360831      -49.6769857      -568.5476771438

 SB1C                 -214325.7657611   428660.6437296      -.3174354787916  .44545719843221       92025.69965654  .99216052263E-7
                      371233.63750288      119.9992968      .31251693144441      135.4473453      -25431.14840958              0.0

            X0002C    -214325.7657607  428660.64372918      .31743547879159  .44545719843221      -92025.69965644
                      371233.63750256      119.9992968      -.3125169314444      -44.5526547      25431.148409577

 XX0005               428660.64369689  428660.64372917                  0.0              0.0                  0.0              0.0
                      -5.260916932657       -0.0007032                  0.0              0.0                  0.0              0.0

            X0002A    428660.64369689  428660.64372917                  0.0              0.0                  0.0
                      -5.260916932657       -0.0007032                  0.0              0.0                  0.0

 XX0003               -214334.8779362  428660.64372918                  0.0              0.0                  0.0              0.0
                      -371228.3765856     -120.0007032                  0.0              0.0                  0.0              0.0

            X0002B    -214334.8779362  428660.64372918                  0.0              0.0                  0.0
                      -371228.3765856     -120.0007032                  0.0              0.0                  0.0

 XX0004               -214325.7657607  428660.64372918                  0.0              0.0                  0.0              0.0
                      371233.63750256      119.9992968                  0.0              0.0                  0.0              0.0

            X0002C    -214325.7657607  428660.64372918                  0.0              0.0                  0.0
                      371233.63750256      119.9992968                  0.0              0.0                  0.0

 X0001A               -229.0930794473  2615.0169003268      -.2455124424E-3  .24645953642E-3      .75927878868E-5  .75927878868E-5
                       2604.962523712       95.0259389      -.2158572931E-4     -174.9754111      -.3222479264083       -0.3222479

            TERRA                 0.0              0.0      .24551244242E-3  .24645953642E-3                  0.0
                                  0.0              0.0      .21585729311E-4        5.0245889                  0.0

 X0001A               -229.0930794473  2615.0169003268      -.4288897367763  .42889767961425      52.527602391403  91976.609789244
                       2604.962523712       95.0259389      .00261022344064      179.6513021      -558.3218534905        0.0000000

            X0002A    428660.64369689  428660.64372917      .42888973677634  .42889767961425      91924.082186852
                      -5.260916932657       -0.0007032      -.0026102234406       -0.3486979      558.32185349051

 X0001B               2370.5102611647  2615.0169003268      .21670538819732  .42889767961425      52.527602391397  91976.609789244
                      -1104.080835224      -24.9740611      .37012429575041       59.6513021      -558.3218534905        0.0000000

            X0002B    -214334.8779362  428660.64372918      -.2167053881973  .42889767961425      91924.082186852
                      -371228.3765856     -120.0007032      -.3701242957504     -120.3486979      558.32185349051

 X0001C               -2141.417181717  2615.0169003267      .21218434857902  .42889767961425      52.527602391397  91976.609789244
                      -1500.881688488     -144.9740611      -.3727345191911      -60.3486979      -558.3218534905        0.0000000

            X0002C    -214325.7657607  428660.64372918       -.212184348579  .42889767961425      91924.082186852
                      371233.63750256      119.9992968      .37273451919105      119.6513021       558.3218534905

 X0002C               -214325.7657607  428660.64372918      -.0349884219757  .04040031386546      .20402317005338  .20402317005338
                      371233.63750256      119.9992968      -.0201989031404     -150.0020532      -8659.012271812    -8659.0122718

            TERRA                 0.0              0.0      .03498842197575  .04040031386546                  0.0
                                  0.0              0.0       .0201989031404       29.9979468                  0.0

 X0002A               428660.64369689  428660.64372917      .14477397083E-5  .04040031386546      .20402317005351  .20402317005351
                      -5.260916932657       -0.0007032      .04040031383953       89.9979468      -8659.012271812    -8659.0122718

            TERRA                 0.0              0.0      -.1447739708E-5  .04040031386546                  0.0
                                  0.0              0.0      -.0404003138395      -90.0020532                  0.0

 X0001C               -2141.417181717  2615.0169003267      .14145001115E-3  .24645953642E-3      .75927878868E-5  .75927878868E-5
                      -1500.881688488     -144.9740611      -.2018271474E-3      -54.9754111      -.3222479264082       -0.3222479

            TERRA                 0.0              0.0      -.1414500112E-3  .24645953642E-3                  0.0
                                  0.0              0.0      .20182714743E-3      125.0245889                  0.0

 X0001A               -229.0930794473  2615.0169003268      -.4939203643E-3  .08084530794263      -105.2409566454  .40849773852115
                       2604.962523712       95.0259389      -.0808437991377      -90.3500479      -9.903699468633   -17337.1824873

            X0002A    428660.64369689  428660.64372917      .49392036426E-3  .08084530794263      105.64945438396
                      -5.260916932657       -0.0007032      .08084379913767       89.6499521      -17327.27878787

 X0001B               2370.5102611647  2615.0169003268      -.0697658236095  .08084530794263      -105.2409566454  .40849773852135
                      -1104.080835224      -24.9740611      .04084964715173      149.6499521      -9.903699468632   -17337.1824873

            X0002B    -214334.8779362  428660.64372918      .06976582360954  .08084530794263      105.64945438397
                      -371228.3765856     -120.0007032      -.0408496471517      -30.3500479      -17327.27878787

 X0001C               -2141.417181717  2615.0169003267       .0702597439738  .08084530794263      -105.2409566454  .40849773852005
                      -1500.881688488     -144.9740611      .03999415198594       29.6499521      -9.903699468632   -17337.1824873

            X0002C    -214325.7657607  428660.64372918      -.0702597439738  .08084530794263      105.64945438396
                      371233.63750256      119.9992968      -.0399941519859     -150.3500479      -17327.27878787

 LN1A                 -229.0930798769  2615.0169002865      -1.514239120431  1.5199769819795      1.5928449869063  1.5893180074158
                      2604.9625236338       95.0259389      -.1319466252114     -175.0199825      -1987.382109646    -1987.3821096

            VFF2A     -229.8632081482  2655.9290269847      .22986321408E-6  .26559290212E-5      -.0035269794905
                       2645.963322104       94.9650005      -.2645963316E-5      -85.0349993      .8572714302E-11

 LN1B                 2370.5102613117  2615.0169002865      .64285043083867  1.5199769819795      1.5928449869136  1.5893180074197
                      -1104.080834812      -24.9740611      1.3773428583029       64.9800175      -1987.382109646    -1987.3821096

            VFF2B      2406.403058498  2655.9290269847      -.2406403059E-5  .26559290237E-5      -.0035269794939
                        -1123.9142834      -25.0349995      .11239142754E-5      154.9650007      .9643958356E-11

 LN1C                 -2141.417181435  2615.0169002864      .87138868959204  1.5199769819795      1.5928449869127  1.5893180074182
                      -1500.881688821     -144.9740611      -1.245396233091      -55.0199825      -1987.382109646    -1987.3821096

            VFF2C      -2176.53985035  2655.9290269846      .21765398537E-5  .26559290242E-5      -.0035269794945
                      -1522.049038704     -145.0349995       .1522049029E-5       34.9650003       -.13145737E-10
     Total network loss  P-loss  by summing injections =   2.763553859486E+05

Output for steady-state phasor switch currents.
      Node-K    Node-M            I-real            I-imag            I-magn          Degrees        Power            Reactive
      LN1A      COMPA         1.94386825E+00    2.10201267E-01    1.95520033E+00       6.1717    5.11198294E+01    2.55592979E+03
      LN1B      COMPB        -7.89893601E-01   -1.78854003E+00    1.95520008E+00    -113.8282    5.11209419E+01    2.55592944E+03
      LN1C      COMPC        -1.15397416E+00    1.57833844E+00    1.95520040E+00     126.1717    5.11204124E+01    2.55592987E+03
      VFF2A     RSNNHA       -2.29863212E-07    2.64596332E-06    2.65592902E-06      94.9650    3.52697949E-03   -5.51987401E-12
      VFF2B     RSNNHB        2.40640306E-06   -1.12391427E-06    2.65592902E-06     -25.0350    3.52697949E-03   -1.34982229E-11
      VFF2C     RSNNHC       -2.17653985E-06   -1.52204903E-06    2.65592902E-06    -145.0350    3.52697949E-03    1.36143806E-11
      VFF2A     SE2A              Open              Open              Open             Open          Open              Open
      VFF2B     SE2B              Open              Open              Open             Open          Open              Open
      VFF2C     SE2C              Open              Open              Open             Open          Open              Open
      X0001B    XX0003            Open              Open              Open             Open          Open              Open
      X0001C    XX0004            Open              Open              Open             Open          Open              Open
      XX0005    X0002A            Open              Open              Open             Open          Open              Open
      XX0003    X0002B            Open              Open              Open             Open          Open              Open
      XX0004    X0002C            Open              Open              Open             Open          Open              Open
      X0001A    XX0005            Open              Open              Open             Open          Open              Open
      VFUENA    IFUENA        4.29803816E-01    1.18633884E-01    4.45875901E-01      15.4305    9.21200034E+04   -2.54268423E+04
      VFUENB    IFUENB       -1.12161950E-01   -4.31537966E-01    4.45875901E-01    -104.5695    9.21200034E+04   -2.54268423E+04
      VFUENC    IFUENC       -3.17641866E-01    3.12904081E-01    4.45875901E-01     135.4305    9.21200034E+04   -2.54268423E+04
      COMPA     RSNSHA        1.94386825E+00    2.10201267E-01    1.95520033E+00       6.1717    5.11198294E+01    2.55592979E+03
      COMPB     RSNSHB       -7.89893601E-01   -1.78854003E+00    1.95520008E+00    -113.8282    5.11209419E+01    2.55592944E+03
      COMPC     RSNSHC       -1.15397416E+00    1.57833844E+00    1.95520040E+00     126.1717    5.11204124E+01    2.55592987E+03

Solution at nodes with known voltage.   Nodes that are shorted together by switches are shown as a group of names, with the printed
result applying to the composite group.   The entry "MVA" is  SQRT( P**2 + Q**2 )  in units of power,  while  "P.F."  is the
associated power factor.
              Node                Source  node  voltage             Injected  source  current              Injected  source  power
              name         Rectangular            Polar          Rectangular            Polar            P  and  Q    MVA and P.F.

               VFUENA
              IFUENA       428660.705       428660.705       .4298038160081  .44587590065234      92120.003390862  95564.738958071
                                  0.0              0.0      .11863388439821       15.4304999      -25426.84226151        0.9639539

               VFUENB
              IFUENB     -214330.3525       428660.705       -.112161950363  .44587590065413      92120.003391052  95564.738958454
                      -371231.0601341     -120.0000000      -.4315379655081     -104.5695001      -25426.84226227        0.9639539

               VFUENC
              IFUENC     -214330.3525       428660.705      -.3176418656413  .44587590065268      92120.003391047  95564.738958144
                      371231.06013415      120.0000000      .31290408110908      135.4304999      -25426.84226111        0.9639539

  +++  Node  "COMPC "  has no connected linear branches.  Add (to ground) the conductance  G = 1.00000000E-18  mhos.
  +++  Node  "COMPB "  has no connected linear branches.  Add (to ground) the conductance  G = 1.00000000E-18  mhos.
  +++  Node  "COMPA "  has no connected linear branches.  Add (to ground) the conductance  G = 1.00000000E-18  mhos.
Card of names for time-step loop output.          |  LN1A  LN1B  LN1C  COMPA COMPB COMPC SB1A  SB1B  SB1C  SE2A  SE2B  SE2C  VFF2A
Card of names for time-step loop output.          |  VFF2B VFF2C IFUENAIFUENBIFUENC
Card of names for time-step loop output.          |-5VFF2A VFF2B VFF2B VFF2C VFF2C VFF2A LN1A  LN1B  LN1B  LN1C  LN1C  LN1A
Card of names for time-step loop output.          |-5SB1A  SB1B  SB1B  SB1C  SB1C  SB1A
Blank card ending requests for output variables.  |BLANK OUTPUT

Column headings for the  55   EMTP output variables follow.  These are divided among the 5 possible classes as follows ....
  First  27     output variables are electric-network voltage differences (upper voltage minus lower voltage);
  Next   6     output variables are branch currents (flowing from the upper node to the lower node);
  Next   22     output variables belong to MODELS (with "MODELS" an internally-added upper name of pair).
   Step      Time      LN1A       LN1B       LN1C       COMPA      COMPB      COMPC      SB1A       SB1B       SB1C       SE2A
 

                       SE2B       SE2C       VFF2A      VFF2B      VFF2C      IFUENA     IFUENB     IFUENC     VFF2A      VFF2B
                                                                                                               VFF2B      VFF2C

                       VFF2C      LN1A       LN1B       LN1C       SB1A       SB1B       SB1C       VFUENA     VFUENB     VFUENC
                       VFF2A      LN1B       LN1C       LN1A       SB1B       SB1C       SB1A       IFUENA     IFUENB     IFUENC

                       COMPA      COMPB      COMPC      MODELS     MODELS     MODELS     MODELS     MODELS     MODELS     MODELS
                       RSNSHA     RSNSHB     RSNSHC     ANVOL      LONG       R0F        R1F        X0F        X1F        RDIVX

                       MODELS     MODELS     MODELS     MODELS     MODELS     MODELS     MODELS     MODELS     MODELS     MODELS
                       RINSER     CLOSE1     RPPOS      RPCERO     LPPOS      LPCERO     CPPOS      CPCERO     XP         CR

                       MODELS     MODELS     MODELS     MODELS     MODELS
                       SIMET      ENC1       ENC2       ENC1AS     ENC2AS
 ***      Phasor I(0) =  1.9438682E+00                     Switch  "LN1A  "  to  "COMPA "  closed in the steady-state.
 ***      Phasor I(0) = -7.8989360E-01                     Switch  "LN1B  "  to  "COMPB "  closed in the steady-state.
 ***      Phasor I(0) = -1.1539742E+00                     Switch  "LN1C  "  to  "COMPC "  closed in the steady-state.
 ***      Phasor I(0) = -2.2986321E-07                     Switch  "VFF2A "  to  "RSNNHA"  closed in the steady-state.
 ***      Phasor I(0) =  2.4064031E-06                     Switch  "VFF2B "  to  "RSNNHB"  closed in the steady-state.
 ***      Phasor I(0) = -2.1765399E-06                     Switch  "VFF2C "  to  "RSNNHC"  closed in the steady-state.
 ***      Phasor I(0) =  4.2980382E-01                     Switch  "VFUENA"  to  "IFUENA"  closed in the steady-state.
 ***      Phasor I(0) = -1.1216195E-01                     Switch  "VFUENB"  to  "IFUENB"  closed in the steady-state.
 ***      Phasor I(0) = -3.1764187E-01                     Switch  "VFUENC"  to  "IFUENC"  closed in the steady-state.
 ***      Phasor I(0) =  1.9438682E+00                     Switch  "COMPA "  to  "RSNSHA"  closed in the steady-state.
 ***      Phasor I(0) = -7.8989360E-01                     Switch  "COMPB "  to  "RSNSHB"  closed in the steady-state.
 ***      Phasor I(0) = -1.1539742E+00                     Switch  "COMPC "  to  "RSNSHC"  closed in the steady-state.
      0       0.0  -229.09308 2370.51026 -2141.4172 -229.09308 2370.51026 -2141.4172 428660.644 -214334.88 -214325.77        0.0
                          0.0        0.0 -229.86321 2406.40306 -2176.5399 428660.705 -214330.35 -214330.35 -2636.2663 4582.94291
                   -1946.6766 -2599.6033 4511.92744 -1912.3241 642995.522 -9.1121752 -642986.41 .429803816 -.11216195 -.31764187
                   1.94386825  -.7898936 -1.1539742        0.0    137.158   2.483821   3.271883    8.60651   11.33717    .288598
                         400.    .048243    .026684    .235596    .391479    1.06904     .01335    .008381   2674.486   53.48971
                          1.0        1.0        0.0        0.0        0.0
    500     .5E-3  -633.77917 2514.04194 -1880.2628 -633.77917 2514.04194 -1880.2628 423383.955 -153623.15  -269760.8        0.0
                          0.0        0.0 -640.95306 2552.59514 -1911.6421  423383.18 -153618.26 -269764.92 -3193.5482 4464.23723
                    -1270.689 -3147.8211 4394.30471 -1246.4836 577007.108 116137.648 -693144.76 .405974351 -.04328062 -.36269373
                    1.8870533 -.50037999 -1.3866733        0.0    137.158   2.483821   3.271883    8.60651   11.33717    .288598
                         400.    .048243    .026684    .235596    .391479    1.06904     .01335    .008381   2674.486   53.48971
                          1.0        1.0        0.0        0.0        0.0
   1000     .1E-2  -1022.8582 2595.66893 -1572.8107 -1022.8582 2595.66893 -1572.8107 407682.128 -89128.707 -318553.42        0.0
                          0.0        0.0 -1036.2604 2635.93377 -1599.6734 407680.557 -89123.572 -318556.98 -3672.1942 4235.60712
                   -563.41294 -3618.5271 4168.47965 -549.95251 496810.835 229424.713 -726235.55 .372130598 .026675343 -.39880594
                   1.78377269 -.19854468 -1.5852281        0.0    137.158   2.483821   3.271883    8.60651   11.33717    .288598
                         400.    .048243    .026684    .235596    .391479    1.06904     .01335    .008381   2674.486   53.48971
                          1.0        1.0        0.0        0.0        0.0
   1500     .0015  -1386.7511  2613.3819 -1226.6308 -1386.7511  2613.3819 -1226.6308 381941.788 -22439.603 -359502.18        0.0
                          0.0        0.0 -1406.0519 2654.36716 -1248.3153 381939.485 -22434.368 -359505.12 -4060.4191 3902.68241
                   157.736647  -4000.133 3840.01271 160.120258 404381.391 337062.581 -741443.97 .329113978 .095979352 -.42509333
                   1.63656966 .108179412 -1.7447493        0.0    137.158   2.483821   3.271883    8.60651   11.33717    .288598
                         400.    .048243    .026684    .235596    .391479    1.06904     .01335    .008381   2674.486   53.48971
                          1.0        1.0        0.0        0.0        0.0
   2000      .002  -1716.4989 2566.74547 -850.24654 -1716.4989 2566.74547 -850.24654 346796.834  44802.008 -391598.84        0.0
                          0.0        0.0 -1741.2209 2607.44076 -866.21988 346793.795 44807.2448 -391601.04 -4348.6616 3473.66064
                   875.001011 -4283.2444 3416.99201 866.252389 301994.826  436400.85 -738395.68 .278003873  .16291485 -.44091872
                   1.44906903 .412239603 -1.8613088        0.0    137.158   2.483821   3.271883    8.60651   11.33717    .288598
                         400.    .048243    .026684    .235596    .391479    1.06904     .01335    .008381   2674.486   53.48971
                          1.0        1.0        0.0        0.0        0.0
   2500     .0025    -2003.98 2456.90679 -452.92677   -2003.98 2456.90679 -452.92677 303112.598 110940.442 -414053.04        0.0
                          0.0        0.0 -2033.5157 2496.31078 -462.79513 303108.891 110945.554 -414054.45 -4529.8264  2959.1059
                   1570.72052 -4460.8868 2909.83356 1551.05325 192172.156 524993.481 -717165.64 .220045869 .225840105 -.44588597
                   1.22588731 .706149582 -1.9320367        0.0    137.158   2.483821   3.271883    8.60651   11.33717    .288598
                         400.    .048243    .026684    .235596    .391479    1.06904     .01335    .008381   2674.486   53.48971
                          1.0        1.0        0.0        0.0        0.0
   3000      .003  -2242.1162 2286.57082 -44.454624 -2242.1162 2286.57082 -44.454624 251964.651  174347.19 -426311.84        0.0
                          0.0        0.0   -2275.74 2323.71407 -47.974019 251960.441 174352.016 -426312.46 -4599.4541 2371.68808
                   2227.76603  -4528.687 2331.02545 2197.66157 77617.4605 600659.031 -678276.49 .156669126  .28320465 -.43987378
                   .972520301 .982671119 -1.9551916        0.0    137.158   2.483821   3.271883    8.60651   11.33717    .288598
                         400.    .048243    .026684    .235596    .391479    1.06904     .01335    .008381   2674.486   53.48971
                          1.0        1.0        0.0        0.0        0.0
   3500     .0035  -2425.0442 2059.93195 365.112274 -2425.0442 2059.93195 365.112274 194612.535 233460.913 -428073.45        0.0
                          0.0        0.0 -2461.9267 2093.89913  368.02758 194607.888 233465.353 -428073.24 -4555.8258 1725.87154
                   2829.95429 -4484.9762 1694.81967 2790.15649 -38848.378 661534.361 -622685.98 .089437031 .333594585 -.42303162
                   .695206568 1.23499631 -1.9302031        0.0    137.158   2.483821   3.271883    8.60651   11.33717    .288598
                         400.    .048243    .026684    .235596    .391479    1.06904     .01335    .008381   2674.486   53.48971
                          1.0        1.0        0.0        0.0        0.0
   4000      .004  -2548.2598 1782.57084 765.688915 -2548.2598 1782.57084 765.688915 132468.436 286826.042 -419294.48        0.0
                          0.0        0.0 -2587.4912 1812.52473 774.966483 132463.443 286829.997 -419293.44 -4400.0159 1037.55825
                   3362.45769 -4330.8306 1016.88193 3313.94867 -154357.61 706120.521 -551762.91 .019994266 .375774536  -.3957688
                   .400774569 1.45691186 -1.8576867        0.0    137.158   2.483821   3.271883    8.60651   11.33717    .288598
                         400.    .048243    .026684    .235596    .391479    1.06904     .01335    .008381   2674.486   53.48971
                          1.0        1.0        0.0        0.0        0.0
   4500     .0045  -2608.7255 1461.31527 1147.41019 -2608.7255 1461.31527 1147.41019 67062.4912 333128.579 -400191.07        0.0
                          0.0        0.0 -2649.3452 1486.52106 1162.82415 67057.3081 333131.936 -400189.24 -4135.8663  323.69691
                   3812.16935 -4070.0407 313.905084 3756.13564 -266066.09 733319.649 -467253.56 -.04993494 .408698716 -.35876378
                   .096474182  1.6429534 -1.7394278        0.0    137.158   2.483821   3.271883    8.60651   11.33717    .288598
                         400.    .048243    .026684    .235596    .391479    1.06904     .01335    .008381   2674.486   53.48971
                          1.0        1.0        0.0        0.0        0.0
   5000      .005  -2604.9624 1104.08069 1500.88166 -2604.9624 1104.08069 1500.88166 5.26499472 371228.374 -371233.64        0.0
                          0.0        0.0 -2645.9633 1123.91422 1522.04907 -.45661E-7  371231.06 -371231.06 -3769.8775 -398.13484
                   4168.01236  -3709.043 -396.80097 4105.84402 -371223.11 742462.014  -371238.9 -.11863191 .431558057 -.31292614
                    -.2102016 1.78853992 -1.5783383        0.0    137.158   2.483821   3.271883    8.60651   11.33717    .288598
                         400.    .048243    .026684    .235596    .391479    1.06904     .01335    .008381   2674.486   53.48971
                          1.0        1.0        0.0        0.0        0.0
   5500     .0055  -2537.0524 719.657953 1817.39448 -2537.0524 719.657953 1817.39448 -67052.103 400187.302  -333135.2        0.0
                          0.0        0.0 -2577.4283 733.632508 1843.79581 -67057.308 400189.244 -333131.94 -3311.0608 -1110.1633
                   4421.22413 -3256.7104 -1097.7365 4354.44691  -467239.4   733322.5  -266083.1 -.18441394 .443794082 -.25938014
                   -.51170163 1.89008676 -1.3783851        0.0    137.158   2.483821   3.271883    8.60651   11.33717    .288598
                         400.    .048243    .026684    .235596    .391479    1.06904     .01335    .008381   2674.486   53.48971
                          1.0        1.0        0.0        0.0        0.0
   6000      .006  -2406.6728  317.51528  2089.1575 -2406.6728  317.51528  2089.1575 -132458.43 419292.293 -286833.86        0.0
                          0.0        0.0  -2445.429 325.286587 2120.14237 -132463.44  419293.44   -286830. -2770.7155 -1794.8558
                   4565.57132 -2724.1881 -1771.6422 4495.83028 -551750.73 706126.152 -154375.43 -.24565223 .445100994 -.19944876
                   -.80060211 1.94509326 -1.1444911        0.0    137.158   2.483821   3.271883    8.60651   11.33717    .288598
                         400.    .048243    .026684    .235596    .391479    1.06904     .01335    .008381   2674.486   53.48971
                          1.0        1.0        0.0        0.0        0.0
   6500     .0065  -2217.0325 -92.445826 2309.47829 -2217.0325 -92.445826 2309.47829 -194603.17 428072.901 -233469.73        0.0
                          0.0        0.0 -2253.2149 -91.069035 2344.28397 -194607.89  428073.24 -233465.35 -2162.1459  -2435.353
                   4597.49891 -2124.5866 -2401.9241 4526.51075 -622676.07 661542.635 -38866.568 -.30084108 .435447714 -.13460664
                   -1.0697885 1.95220514 -.88241634        0.0    137.158   2.483821   3.271883    8.60651   11.33717    .288598
                         400.    .048243    .026684    .235596    .391479    1.06904     .01335    .008381   2674.486   53.48971
                          1.0        1.0        0.0        0.0        0.0
   7000      .007  -1972.8002 -500.13127 2472.93146 -1972.8002 -500.13127 2472.93146 -251956.14 426312.943  -174356.8        0.0
                          0.0        0.0 -2005.5186 -505.18256 2510.70112 -251960.44 426312.457 -174352.02  -1500.336 -3015.8837
                   4516.21969 -1472.6689 -2973.0627 4445.73165 -678269.09 600669.743 77599.3422 -.34862507 .415073686 -.06644862
                   -1.3126336 1.91124723  -.5986137        0.0    137.158   2.483821   3.271883    8.60651   11.33717    .288598
                         400.    .048243    .026684    .235596    .391479    1.06904     .01335    .008381   2674.486   53.48971
                          1.0        1.0        0.0        0.0        0.0
   7500     .0075  -1679.9934  -895.5006   2575.494 -1679.9934  -895.5006   2575.494 -303105.13 414055.751 -110950.62        0.0
                          0.0        0.0 -1708.4412 -906.85609 2615.29726 -303108.89 414054.446 -110945.55 -801.58507 -3522.1534
                   4323.73843  -784.4928 -3470.9946  4255.4874 -717160.88 525006.368 192154.516 -.38782075 .384477166 .003343588
                   -1.5231572 1.82322813  -.3000708        0.0    137.158   2.483821   3.271883    8.60651   11.33717    .288598
                         400.    .048243    .026684    .235596    .391479    1.06904     .01335    .008381   2674.486   53.48971
                          1.0        1.0        0.0        0.0        0.0
   8000      .008  -1345.8201 -1268.8195  2614.6396 -1345.8201 -1268.8195  2614.6396 -346790.65 391603.123 -44812.472        0.0
                          0.0        0.0  -1369.295 -1286.2004 2655.49542  -346793.8  391601.04 -44807.245 -83.094577 -3941.6958
                   4024.79042 -77.000529 -3883.4591 3960.45967 -738393.77 436415.594 301978.179 -.41746912 .344414607 .073054515
                   -1.6961758 1.69031507 .005860457        0.0    137.158   2.483821   3.271883    8.60651   11.33717    .288598
                         400.    .048243    .026684    .235596    .391479    1.06904     .01335    .008381   2674.486   53.48971
                          1.0        1.0        0.0        0.0        0.0
   8500     .0085  -978.50433 -1610.8978 2589.40213 -978.50433 -1610.8978 2589.40213 -381937.04 359507.931 22429.1109        0.0
                          0.0        0.0 -996.42972 -1633.8755 2630.30526 -381939.48 359505.117 22434.3679 637.445811 -4264.1808
                   3626.73498 632.393475 -4200.2999 3567.90646 -741444.97  337078.82 404366.153 -.43683933 .295872066  .14096726
                   -1.8274286 1.51578074 .311647789        0.0    137.158   2.483821   3.271883    8.60651   11.33717    .288598
                         400.    .048243    .026684    .235596    .391479    1.06904     .01335    .008381   2674.486   53.48971
                          1.0        1.0        0.0        0.0        0.0
   9000      .009  -587.09713 -1913.3092 2500.40631 -587.09713 -1913.3092 2500.40631 -407678.86 318560.455 89118.4086        0.0
                          0.0        0.0 -599.03513 -1941.3161 2540.35124 -407680.56 318556.985  89123.572 1342.28097 -4481.6673
                   3139.38637 1326.21204 -4413.7155 3087.50344 -726239.32 229442.047 496797.272 -.44545089 .240043075 .205407816
                   -1.9136842 1.30392301 .609761055        0.0    137.158   2.483821   3.271883    8.60651   11.33717    .288598
                         400.    .048243    .026684    .235596    .391479    1.06904     .01335    .008381   2674.486   53.48971
                          1.0        1.0        0.0        0.0        0.0
   9500     .0095  -181.23343 -2168.6086 2349.84201 -181.23343 -2168.6086 2349.84201 -423382.29  269768.97 153613.321        0.0
                          0.0        0.0 -186.88666 -2200.9568 2387.84351 -423383.18 269764.922 153618.258 2014.07018 -4588.8004
                   2574.73018 1987.37516 -4518.4506 2531.07543 -693151.26 116155.648 576995.613 -.44309443 .178303652  .26479078
                   -1.9528185 1.05995825 .892859981        0.0    137.158   2.483821   3.271883    8.60651   11.33717    .288598
                         400.    .048243    .026684    .235596    .391479    1.06904     .01335    .008381   2674.486   53.48971
                          1.0        1.0        0.0        0.0        0.0
  10000       .01  229.093083 -2370.5098 2141.41671 229.093083 -2370.5098 2141.41671 -428660.65 214334.879 214325.766        0.0
                          0.0        0.0 229.863785 -2406.4029  2176.5391 -428660.71 214330.353 214330.352 2636.26667  -4582.942
                   1946.67531 2599.60288 -4511.9265 1912.32363 -642995.52 9.11266391 642986.412  -.4298285 .112174291 .317654209
                    -1.943868 .789894245 1.15397376        0.0    137.158   2.483821   3.271883    8.60651   11.33717    .288598
                         400.    .048243    .026684    .235596    .391479    1.06904     .01335    .008381   2674.486   53.48971
                          1.0        1.0        0.0        0.0        0.0
  10500     .0105  633.777196 -2514.0405 1880.26335 633.777196 -2514.0405 1880.26335 -423383.95 153623.149 269760.796        0.0
                          0.0        0.0 640.952489 -2552.5944 1911.64192 -423383.18 153618.258 269764.922 3193.54689 -4464.2363
                   1270.68943 3147.81774 -4394.3039 1246.48615 -577007.09 -116137.65 693144.742 -.40597737 .043282131 .362695238
                    -1.887053 .500379963 1.38667319        0.0    137.158   2.483821   3.271883    8.60651   11.33717    .288598
                         400.    .048243    .026684    .235596    .391479    1.06904     .01335    .008381   2674.486   53.48971
                          1.0        1.0        0.0        0.0        0.0
  11000      .011    1022.858 -2595.6684 1572.81044   1022.858 -2595.6684 1572.81044 -407682.12 89128.7041 318553.417        0.0
                          0.0        0.0 1036.26034 -2635.9334 1599.67304 -407680.56  89123.572 318556.985 3672.19372 -4235.6064
                   563.412696 3618.52644 -4168.4789 549.952442 -496810.83 -229424.71 726235.539 -.37213108  -.0266751 .398806181
                   -1.7837725 .198544599 1.58522786        0.0    137.158   2.483821   3.271883    8.60651   11.33717    .288598
                         400.    .048243    .026684    .235596    .391479    1.06904     .01335    .008381   2674.486   53.48971
                          1.0        1.0        0.0        0.0        0.0
  11500     .0115  1386.75246 -2613.3823 1226.62985 1386.75246 -2613.3823 1226.62985 -381941.82 22439.6179 359502.199        0.0
                          0.0        0.0  1406.0516 -2654.3667 1248.31508 -381939.48 22434.3679 359505.117 4060.41829 -3902.6818
                   -157.73652 4000.13477 -3840.0122 -160.12262 -404381.44 -337062.58 741444.016 -.32912081 -.09597594 .425096757
                   -1.6365696 -.10817921 1.74474878        0.0    137.158   2.483821   3.271883    8.60651   11.33717    .288598
                         400.    .048243    .026684    .235596    .391479    1.06904     .01335    .008381   2674.486   53.48971
                          1.0        1.0        0.0        0.0        0.0
  12000      .012  1716.49779 -2566.7447 850.246874 1716.49779 -2566.7447 850.246874 -346796.84 -44802.006 391598.844        0.0
                          0.0        0.0 1741.21979   -2607.44 866.220218  -346793.8 -44807.245  391601.04 4348.65981 -3473.6602
                   -874.99958 4283.24245 -3416.9915 -866.25092 -301994.83 -436400.85 738395.682 -.27800671 -.16291344 .440920141
                   -1.4490688 -.41223945 1.86130849        0.0    137.158   2.483821   3.271883    8.60651   11.33717    .288598
                         400.    .048243    .026684    .235596    .391479    1.06904     .01335    .008381   2674.486   53.48971
                          1.0        1.0        0.0        0.0        0.0
  12500     .0125   2003.9795 -2456.9064 452.926923  2003.9795 -2456.9064 452.926923 -303112.58 -110940.45 414053.028        0.0
                          0.0        0.0 2033.51627 -2496.3109 462.794659 -303108.89 -110945.55 414054.446 4529.82721 -2959.1056
                   -1570.7216 4460.88592 -2909.8333 -1551.0526 -192172.12 -524993.48 717165.604 -.22004746  -.2258393 .445886766
                   -1.2258874 -.70614893 1.93203641        0.0    137.158   2.483821   3.271883    8.60651   11.33717    .288598
                         400.    .048243    .026684    .235596    .391479    1.06904     .01335    .008381   2674.486   53.48971
                          1.0        1.0        0.0        0.0        0.0
  13000      .013  2242.11592 -2286.5706 44.4546948 2242.11592 -2286.5706 44.4546948 -251964.66 -174347.18 426311.846        0.0
                          0.0        0.0 2275.73754 -2323.7128 47.9752534 -251960.44 -174352.02 426312.457 4599.45033  -2371.688
                   -2227.7623 4528.68654 -2331.0253 -2197.6612 -77617.478 -600659.03 678276.508 -.15666992 -.28320426 .439874175
                   -.97252029 -.98267105 1.95519126        0.0    137.158   2.483821   3.271883    8.60651   11.33717    .288598
                         400.    .048243    .026684    .235596    .391479    1.06904     .01335    .008381   2674.486   53.48971
                          1.0        1.0        0.0        0.0        0.0
  13500     .0135  2425.04654 -2059.9332 -365.11336 2425.04654 -2059.9332 -365.11336 -194612.55 -233460.91 428073.454        0.0
                          0.0        0.0 2461.92514 -2093.8984 -368.02677 -194607.89 -233465.35  428073.24 4555.82352 -1725.8716
                   -2829.9519 4484.97973 -1694.8198 -2790.1599 38848.3611 -661534.36    622686. -.08943383 -.33359619 .423030019
                   -.69520677 -1.2349964 1.93020279        0.0    137.158   2.483821   3.271883    8.60651   11.33717    .288598
                         400.    .048243    .026684    .235596    .391479    1.06904     .01335    .008381   2674.486   53.48971
                          1.0        1.0        0.0        0.0        0.0
  14000      .014  2548.26039 -1782.5713 -765.68912 2548.26039 -1782.5713 -765.68912 -132468.43 -286826.05 419294.474        0.0
                          0.0        0.0 2587.49387 -1812.5262 -774.96766 -132463.44   -286830.  419293.44 4400.02008 -1037.5585
                   -3362.4615 4330.83165 -1016.8821 -3313.9495  154357.62 -706120.52 551762.901 -.01999653  -.3757734  .39576993
                   -.40077486 -1.4569117  1.8576864        0.0    137.158   2.483821   3.271883    8.60651   11.33717    .288598
                         400.    .048243    .026684    .235596    .391479    1.06904     .01335    .008381   2674.486   53.48971
                          1.0        1.0        0.0        0.0        0.0
  14500     .0145  2608.72841 -1461.3169 -1147.4115 2608.72841 -1461.3169 -1147.4115 -67062.495 -333128.58 400191.072        0.0
                          0.0        0.0 2649.34504 -1486.5212 -1162.8239 -67057.308 -333131.94 400189.244 4135.86619 -323.69727
                   -3812.1689 4070.04534 -313.90546 -3756.1399 266066.081 -733319.65 467253.568 .049933336 -.40869792 .358764584
                    -.0964742 -1.6429531 1.73942754        0.0    137.158   2.483821   3.271883    8.60651   11.33717    .288598
                         400.    .048243    .026684    .235596    .391479    1.06904     .01335    .008381   2674.486   53.48971
                          1.0        1.0        0.0        0.0        0.0
  % % % % % %   Suspended simulation;  plot data space exhausted;  SPY SPACE is required.   LIMBUF =  840000.
  % % % % % %   Suspended simulation;  plot data space exhausted;  SPY SPACE is required.   LIMBUF =  840000.
  +++  Time-sharing disabled.   Send  user-keyed interrupt to silence alarm.
   Current values.  INDBUF  INDBEG  LIMBUF  MFLUSH  NUMDCD  KCARD1  KCARD2
                    839994      50  840000    1000     230       1     231
Plot timespan now in memory (in sec) = 0.00000000E+00   1.49990000E-02
   ++++  Begin plot-data copy from memory to disk.   MFLUSH, INDBUF, N4, Tbeg,  Tend = 1001  839994       1  -1.00000E+00
1.00000E+19
  15000      .015  2604.96134 -1104.0804 -1500.8809 2604.96134 -1104.0804 -1500.8809 -5.2634508 -371228.38 371233.639        0.0
                          0.0        0.0 2645.96248  -1123.914 -1522.0485 -.61533E-6 -371231.06  371231.06 3769.87651 398.134438
                   -4168.0109 3709.04175 396.800519 -4105.8423 371223.112 -742462.01 371238.902 .118633322 -.43155876 .312925438
                   .210201424 -1.7885396 1.57833817        0.0    137.158   2.483821   3.271883    8.60651   11.33717    .288598
                         400.    .048243    .026684    .235596    .391479    1.06904     .01335    .008381   2674.486   53.48971
                          1.0        1.0        0.0        0.0        0.0
  15500     .0155  2537.05284 -719.65843 -1817.3944 2537.05284 -719.65843 -1817.3944 67052.1024  -400187.3 333135.199        0.0
                          0.0        0.0 2577.42828 -733.63279 -1843.7955 67057.3081 -400189.24 333131.936 3311.06107  1110.1627
                   -4421.2238 3256.71127 1097.73599 -4354.4473 467239.404  -733322.5 266083.096  .18441329 -.44379376 .259380465
                   .511701399 -1.8900864 1.37838502        0.0    137.158   2.483821   3.271883    8.60651   11.33717    .288598
                         400.    .048243    .026684    .235596    .391479    1.06904     .01335    .008381   2674.486   53.48971
                          1.0        1.0        0.0        0.0        0.0
  16000      .016  2406.67233 -317.51542 -2089.1569 2406.67233 -317.51542 -2089.1569 132458.425 -419292.29 286833.864        0.0
                          0.0        0.0 2445.42826 -325.28657 -2120.1417 132463.443 -419293.44 286829.997 2770.71484 1794.85511
                     -4565.57 2724.18775  1771.6415 -4495.8292 551750.714 -706126.15 154375.438  .24565172 -.44510074 .199449019
                   .800601774  -1.945093 1.14449137        0.0    137.158   2.483821   3.271883    8.60651   11.33717    .288598
                         400.    .048243    .026684    .235596    .391479    1.06904     .01335    .008381   2674.486   53.48971
                          1.0        1.0        0.0        0.0        0.0
  16500     .0165  2217.03202 92.4456689 -2309.4777 2217.03202 92.4456689 -2309.4777 194603.171  -428072.9 233469.732        0.0
                          0.0        0.0 2253.21545 91.0683578 -2344.2838 194607.888 -428073.24 233465.353  2162.1471 2435.35217
                   -4597.4993 2124.58635 2401.92336 -4526.5097 622676.074 -661542.64 38866.5615 .300841424 -.43544789 .134606462
                   1.06978846 -1.9522049 .882416435        0.0    137.158   2.483821   3.271883    8.60651   11.33717    .288598
                         400.    .048243    .026684    .235596    .391479    1.06904     .01335    .008381   2674.486   53.48971
                          1.0        1.0        0.0        0.0        0.0
  17000      .017  1972.79977 500.131031 -2472.9308 1972.79977 500.131031 -2472.9308 251956.148 -426312.95 174356.798        0.0
                          0.0        0.0 2005.51905 505.181893 -2510.7009 251960.441 -426312.46 174352.016 1500.33716 3015.88284
                     -4516.22 1472.66874 2973.06183 -4445.7306 678269.094 -600669.74  -77599.35 .348623339 -.41507282 .066449482
                   1.31263347  -1.911247 .598613679        0.0    137.158   2.483821   3.271883    8.60651   11.33717    .288598
                         400.    .048243    .026684    .235596    .391479    1.06904     .01335    .008381   2674.486   53.48971
                          1.0        1.0        0.0        0.0        0.0
  17500     .0175  1679.99292 895.500403 -2575.4933 1679.99292 895.500403 -2575.4933 303105.129 -414055.75  110950.62        0.0
                          0.0        0.0 1708.44041 906.855981 -2615.2964 303108.891 -414054.45 110945.554 801.584429 3522.15237
                   -4323.7368 784.492513 3470.99372 -4255.4862 717160.877 -525006.37 -192154.51 .387820926 -.38447725 -.00334367
                   1.52315699  -1.823228 .300070997        0.0    137.158   2.483821   3.271883    8.60651   11.33717    .288598
                         400.    .048243    .026684    .235596    .391479    1.06904     .01335    .008381   2674.486   53.48971
                          1.0        1.0        0.0        0.0        0.0
  18000      .018  1345.81699 1268.82058 -2614.6376 1345.81699 1268.82058 -2614.6376 346790.654 -391603.12 44812.4701        0.0
                          0.0        0.0 1369.29472  1286.2001 -2655.4948 346793.795 -391601.04 44807.2448  83.094618 3941.69493
                   -4024.7895 76.9964154 3883.45814 -3960.4546 738393.779 -436415.59 -301978.18 .417470133 -.34441511 -.07305502
                   1.69617532  -1.690315 -.00586056        0.0    137.158   2.483821   3.271883    8.60651   11.33717    .288598
                         400.    .048243    .026684    .235596    .391479    1.06904     .01335    .008381   2674.486   53.48971
                          1.0        1.0        0.0        0.0        0.0
  18500     .0185  978.505046 1610.89699  -2589.402 978.505046 1610.89699  -2589.402 381937.043 -359507.93 -22429.111        0.0
                          0.0        0.0 996.434044 1633.87286 -2630.3069 381939.485 -359505.12 -22434.368 -637.43881 4264.17975
                   -3626.7409 -632.39195 4200.29903 -3567.9071 741444.975 -337078.82 -404366.15 .436838972 -.29587189 -.14096708
                   1.82742836 -1.5157808 -.31164769        0.0    137.158   2.483821   3.271883    8.60651   11.33717    .288598
                         400.    .048243    .026684    .235596    .391479    1.06904     .01335    .008381   2674.486   53.48971
                          1.0        1.0        0.0        0.0        0.0
  19000      .019  587.097233 1913.30871 -2500.4059 587.097233 1913.30871 -2500.4059 407678.873 -318560.46 -89118.413        0.0
                          0.0        0.0 599.035068 1941.31573 -2540.3508 407680.557 -318556.98 -89123.572 -1342.2807 4481.66653
                   -3139.3859 -1326.2115 4413.71466 -3087.5032 726239.332 -229442.05 -496797.29 .445450541  -.2400429 -.20540764
                    1.9136839 -1.3039231 -.60976091        0.0    137.158   2.483821   3.271883    8.60651   11.33717    .288598
                         400.    .048243    .026684    .235596    .391479    1.06904     .01335    .008381   2674.486   53.48971
                          1.0        1.0        0.0        0.0        0.0
  19500     .0195  181.233851 2168.60803 -2349.8419 181.233851 2168.60803 -2349.8419 423382.294 -269768.97 -153613.32        0.0
                          0.0        0.0 186.887098  2200.9563 -2387.8434  423383.18 -269764.92 -153618.26 -2014.0692  4588.7997
                   -2574.7305 -1987.3742 4518.44991 -2531.0757 693151.265 -116155.65 -576995.62 .443094661 -.17830377  -.2647909
                    1.9528183 -1.0599582 -.89286007        0.0    137.158   2.483821   3.271883    8.60651   11.33717    .288598
                         400.    .048243    .026684    .235596    .391479    1.06904     .01335    .008381   2674.486   53.48971
                          1.0        1.0        0.0        0.0        0.0
  20000       .02  -229.09258 2370.50927 -2141.4167 -229.09258 2370.50927 -2141.4167 428660.645 -214334.88 -214325.77        0.0
                          0.0        0.0 -229.86354 2406.40246 -2176.5389 428660.705 -214330.35 -214330.35  -2636.266 4582.94138
                   -1946.6754 -2599.6019 4511.92596 -1912.3241 642995.524  -9.112658 -642986.41 .429828274 -.11217418  -.3176541
                    1.9438678 -.78989395 -1.1539735        0.0    137.158   2.483821   3.271883    8.60651   11.33717    .288598
                         400.    .048243    .026684    .235596    .391479    1.06904     .01335    .008381   2674.486   53.48971
                          1.0        1.0        0.0        0.0        0.0
  20500     .0205   -633.7772  2514.0403 -1880.2631  -633.7772  2514.0403 -1880.2631 423383.942 -153623.15 -269760.79        0.0
                          0.0        0.0  -640.9525 2552.59419 -1911.6417  423383.18 -153618.26 -269764.92 -3193.5467 4464.23587
                   -1270.6892 -3147.8175  4394.3034 -1246.4859 577007.089 116137.648 -693144.74 .405978003 -.04328245 -.36269555
                    1.8870528 -.50037991 -1.3866729        0.0    137.158   2.483821   3.271883    8.60651   11.33717    .288598
                         400.    .048243    .026684    .235596    .391479    1.06904     .01335    .008381   2674.486   53.48971
                          1.0        1.0        0.0        0.0        0.0
  21000      .021  -1022.8574 2595.66797 -1572.8106 -1022.8574 2595.66797 -1572.8106 407682.123 -89128.705 -318553.42        0.0
                          0.0        0.0 -1036.2596 2635.93284 -1599.6732 407680.557 -89123.572 -318556.98 -3672.1925 4235.60603
                   -563.41355 -3618.5253 4168.47856 -549.95323 496810.827 229424.713 -726235.54 .372131229 .026675026 -.39880626
                   1.78377238 -.19854477 -1.5852275        0.0    137.158   2.483821   3.271883    8.60651   11.33717    .288598
[...]
                         400.    .048243    .026684    .235596    .391479    1.06904     .01335    .008381   2674.486   53.48971
                          1.0        1.0        0.0        0.0        0.0
 113000      .113  -253382.57  -172828.6  426211.17 -253382.57  -172828.6  426211.17 -253382.57  -172828.6 426211.171        0.0
                          0.0        0.0 -255639.65 -165926.98 421566.624 -251960.44 -174352.02 426312.457 -89712.673  -587493.6
                   677206.273 -80553.977 -599039.77 679593.744 -80553.977 -599039.77 679593.745 -133.16893 -100.18743 233.356357
                   -280.13132 198.948984 81.1823093        0.0    137.158   2.483821   3.271883    8.60651   11.33717    .288598
                         400.    .048243    .026684    .235596    .391479    1.06904     .01335    .008381   2674.486   53.48971
                          1.0        1.0        0.0        0.0        0.0
 113500     .1135  -186876.88 -238774.24 425651.118 -186876.88 -238774.24 425651.118 -186876.88 -238774.24 425651.118        0.0
                          0.0        0.0 -217109.44 -250754.55 467863.982 -194607.89 -233465.35  428073.24 33645.1098 -718618.53
                   684973.418 51897.3668 -664425.36 612527.994 51897.3667 -664425.36 612527.994 -104.26621 -66.562987 170.829195
                   -305.69406 174.100063 131.594027        0.0    137.158   2.483821   3.271883    8.60651   11.33717    .288598
                         400.    .048243    .026684    .235596    .391479    1.06904     .01335    .008381   2674.486   53.48971
                          1.0        1.0        0.0        0.0        0.0
 114000      .114  -139394.79 -286624.49 426019.278 -139394.79 -286624.49 426019.278 -139394.79 -286624.49 426019.278        0.0
                          0.0        0.0 -145917.05 -286262.39 432179.443 -132463.44   -286830.  419293.44 140345.339 -718441.83
                   578096.496 147229.701 -712643.77 565414.066 147229.701 -712643.77 565414.067 -63.901516 -15.525638  79.427154
                   -324.26238 142.561204 181.701177        0.0    137.158   2.483821   3.271883    8.60651   11.33717    .288598
                         400.    .048243    .026684    .235596    .391479    1.06904     .01335    .008381   2674.486   53.48971
                          1.0        1.0        0.0        0.0        0.0
 114500     .1145  -54022.726 -325656.65 379679.381 -54022.726 -325656.65 379679.381 -54022.726 -325656.65 379679.381        0.0
                          0.0        0.0 -60432.406 -336032.24 396464.643 -67057.308 -333131.94 400189.244 275599.831 -732496.88
                   456897.049 271633.929 -705336.04 433702.106 271633.929 -705336.04 433702.107 -57.657537 -18.861969 76.5195063
                   -335.00414 105.708896 229.295208        0.0    137.158   2.483821   3.271883    8.60651   11.33717    .288598
                         400.    .048243    .026684    .235596    .391479    1.06904     .01335    .008381   2674.486   53.48971
                          1.0        1.0        0.0        0.0        0.0
 115000      .115  -1474.1482 -361855.54  363329.69 -1474.1482 -361855.54  363329.69 -1474.1484 -361855.54  363329.69        0.0
                          0.0        0.0 20142.8727 -351375.85  331232.98 .127058E-4 -371231.06  371231.06 371518.726 -682608.83
                   311090.108 360381.393 -725185.23 364803.838 360381.393 -725185.23 364803.838 -82.407551 -46.485548 128.893099
                   -337.65541 64.2312209 273.424179        0.0    137.158   2.483821   3.271883    8.60651   11.33717    .288598
                         400.    .048243    .026684    .235596    .391479    1.06904     .01335    .008381   2674.486   53.48971
                          1.0        1.0        0.0        0.0        0.0
 115500     .1155  67981.2759 -393574.84 325593.568 67981.2759 -393574.84 325593.568 67981.2757 -393574.84 325593.568        0.0
                          0.0        0.0 69441.2774 -395741.14 326299.866 67057.3081 -400189.24 333131.936 465182.421 -722041.01
                   256858.588  461556.12 -719168.41 257612.292  461556.12 -719168.41 257612.293 -141.22781  -119.7695 260.997314
                   -332.11491  19.349839 312.765027        0.0    137.158   2.483821   3.271883    8.60651   11.33717    .288598
                         400.    .048243    .026684    .235596    .391479    1.06904     .01335    .008381   2674.486   53.48971
                          1.0        1.0        0.0        0.0        0.0
 116000      .116  141124.447 -426271.61  285147.16 141124.447 -426271.61  285147.16 141124.447 -426271.61  285147.16        0.0
                          0.0        0.0 132042.435  -436822.8 304780.369 132463.443 -419293.44 286829.997 568865.239 -741603.17
                   172737.935 567396.054 -711418.77 144022.713 567396.054 -711418.77 144022.714 -113.62626 -115.34233 228.968589
                   -319.53237 -28.858483  348.39085        0.0    137.158   2.483821   3.271883    8.60651   11.33717    .288598
                         400.    .048243    .026684    .235596    .391479    1.06904     .01335    .008381   2674.486   53.48971
                          1.0        1.0        0.0        0.0        0.0
 116500     .1165  186258.182 -427958.87 241700.685 186258.182 -427958.87 241700.685 186258.182 -427958.87 241700.685        0.0
                          0.0        0.0 189042.422 -435720.56 246678.135 194607.888 -428073.24 233465.353 624762.979 -682398.69
                   57635.7129 614217.048 -669659.55 55442.5034 614217.049 -669659.55 55442.5039 -69.144831 -98.784641 167.929472
                   -299.64869 -78.662457 378.311122        0.0    137.158   2.483821   3.271883    8.60651   11.33717    .288598
                         400.    .048243    .026684    .235596    .391479    1.06904     .01335    .008381   2674.486   53.48971
                          1.0        1.0        0.0        0.0        0.0
 117000      .117  257900.192 -415425.92 157525.731 257900.192 -415425.92 157525.731 257900.192 -415425.92 157525.731        0.0
                          0.0        0.0 249006.608 -427115.32 178108.717 251960.441 -426312.46 174352.016 676121.932 -605224.04
                   -70897.891 673326.114 -572951.65 -100374.46 673326.114 -572951.65 -100374.46 -30.336963 -53.737565 84.0745284
                   -272.77859 -128.97985 401.758446        0.0    137.158   2.483821   3.271883    8.60651   11.33717    .288598
                         400.    .048243    .026684    .235596    .391479    1.06904     .01335    .008381   2674.486   53.48971
                          1.0        1.0        0.0        0.0        0.0
 117500     .1175  305486.725 -409694.26 104207.533 305486.725 -409694.26 104207.533 305486.725 -409694.26 104207.534        0.0
                          0.0        0.0 328094.914 -398577.31 70482.3995 303108.891 -414054.45 110945.554 726672.226 -469059.71
                   -257612.51 715180.983 -513901.79 -201279.19 715180.983 -513901.79 -201279.19  -47.90662 -84.864561  132.77118
                    -239.1402 -177.66556 416.805725        0.0    137.158   2.483821   3.271883    8.60651   11.33717    .288598
                         400.    .048243    .026684    .235596    .391479    1.06904     .01335    .008381   2674.486   53.48971
                          1.0        1.0        0.0        0.0        0.0
 118000      .118  351367.658 -374165.06 22797.4062 351367.658 -374165.06 22797.4062 351367.658 -374165.06 22797.4066        0.0
                          0.0        0.0 363121.505 -385316.18 22194.6765 346793.795 -391601.04 44807.2447 748437.687 -407510.86
                   -340926.83 725532.722 -396962.47 -328570.25 725532.722 -396962.47 -328570.25 -86.118577 -145.47553 231.594109
                   -199.85298 -223.89421 423.747196        0.0    137.158   2.483821   3.271883    8.60651   11.33717    .288598
                         400.    .048243    .026684    .235596    .391479    1.06904     .01335    .008381   2674.486   53.48971
                          1.0        1.0        0.0        0.0        0.0
 118500     .1185  381041.392 -358169.79 -22871.606 381041.392 -358169.79 -22871.606 381041.392 -358169.79 -22871.606        0.0
                          0.0        0.0 394759.588 -364096.36 -30663.227 381939.485 -359505.12 -22434.368 758855.948 -333433.13
                   -425422.82 739211.178 -335298.18   -403913. 739211.178 -335298.18   -403913. -73.847555 -165.46719 239.314748
                   -156.47211 -267.09385 423.565949        0.0    137.158   2.483821   3.271883    8.60651   11.33717    .288598
                         400.    .048243    .026684    .235596    .391479    1.06904     .01335    .008381   2674.486   53.48971
                          1.0        1.0        0.0        0.0        0.0
 119000      .119  403788.421 -321487.64 -82300.778 403788.421 -321487.64 -82300.778  403788.42 -321487.64 -82300.777        0.0
                          0.0        0.0 400057.165 -334473.19 -65583.972 407680.557 -318556.98 -89123.572 734530.357 -268889.22
                   -465641.14 725276.063 -239186.86  -486089.2 725276.063 -239186.87  -486089.2  -47.55908 -152.28126 199.840343
                   -109.77885 -306.14874 415.927537        0.0    137.158   2.483821   3.271883    8.60651   11.33717    .288598
                         400.    .048243    .026684    .235596    .391479    1.06904     .01335    .008381   2674.486   53.48971
                          1.0        1.0        0.0        0.0        0.0
 119500     .1195  430820.528  -271302.7 -159517.83 430820.528  -271302.7 -159517.83 430820.528  -271302.7 -159517.83        0.0
                          0.0        0.0 421755.378  -278935.3 -142820.08  423383.18 -269764.92 -153618.26 700690.674 -136115.21
                   -564575.46 702123.229 -111784.87 -590338.36 702123.229 -111784.87 -590338.36 20.3784174 -103.38046 83.0020472
                   -61.169024 -340.12318 401.292205        0.0    137.158   2.483821   3.271883    8.60651   11.33717    .288598
                         400.    .048243    .026684    .235596    .391479    1.06904     .01335    .008381   2674.486   53.48971
                          1.0        1.0        0.0        0.0        0.0
  % % % % % %   Suspended simulation;  plot data space exhausted;  SPY SPACE is required.   LIMBUF =  840000.
  % % % % % %   Suspended simulation;  plot data space exhausted;  SPY SPACE is required.   LIMBUF =  840000.
  +++  Time-sharing disabled.   Send  user-keyed interrupt to silence alarm.
   Current values.  INDBUF  INDBEG  LIMBUF  MFLUSH  NUMDCD  KCARD1  KCARD2
                    839994      50  840000    1007     230       1     231
Plot timespan now in memory (in sec) = 1.04985997E-01   1.19985000E-01
   ++++  Begin plot-data copy from memory to disk.   MFLUSH, INDBUF, N4, Tbeg,  Tend = 1008  839994       1  -1.00000E+00
1.00000E+19
 120000       .12  430596.956 -209292.42 -221304.54 430596.956 -209292.42 -221304.54 430596.956 -209292.42 -221304.54        0.0
                          0.0        0.0   451504.2 -200075.46 -251428.74 428660.705 -214330.35 -214330.35 651579.656 51353.2868
                   -702932.94 639889.374 12012.1189 -651901.49 639889.374 12012.1185 -651901.49 20.2694035 -124.50957 104.240161
                   -10.913902 -367.28014 378.194038        0.0    137.158   2.483821   3.271883    8.60651   11.33717    .288598
                         400.    .048243    .026684    .235596    .391479    1.06904     .01335    .008381   2674.486   53.48971
                          1.0        1.0        0.0        0.0        0.0

Extrema of output variables follow.   Order and column positioning are the same as for the preceding time-step loop output.
Variable maxima :  446848.866  461244.84 454425.454 446848.866  461244.84 454425.454 446848.866  461244.84 454425.455        0.0
                          0.0        0.0  479149.15 495823.003 544498.343 428660.705 428660.703 428660.703 797287.244 885545.365
                   871291.905 789238.877 801991.486 776426.671 789238.877 801991.485 794899.007 191.810218 513.409127  561.53915
                   301.446471 227.345236 482.608855        0.0    137.158   2.483821   3.271883    8.60651   11.33717    .288598
                         400.    .048243    .026684    .235596    .391479    1.06904     .01335    .008381   2674.486   53.48971
                          1.0        1.0        0.0        0.0        0.0
Times of maxima :     .080304    .066362    .072772    .080304    .066362    .072772    .080304    .066362    .072772        0.0
                          0.0        0.0    .079768    .066596    .073303        0.0    .006667    .113333     .05781     .06398
                       .07069    .058366    .085379    .092171    .058366    .085379    .051626    .065969    .048488    .059376
                      .104959    .111563    .058127        0.0        0.0        0.0        0.0        0.0        0.0        0.0
                          0.0        0.0        0.0        0.0        0.0        0.0        0.0        0.0        0.0        0.0
                          0.0        0.0        0.0        0.0        0.0
Variable minima :  -454333.42  -458160.3   -469213. -454333.42  -458160.3   -469213. -533020.56  -458160.3   -469213.        0.0
                          0.0        0.0 -478746.76 -501459.26 -537978.93 -428660.71  -428660.7  -428660.7 -832344.38 -869619.77
                   -932409.93  -772607.6 -795313.54 -792578.37  -933643.8 -795313.54 -792578.37 -605.37649  -384.8787 -225.76716
                    -356.9784 -449.62741 -207.06713        0.0    137.158   2.483821   3.271883    8.60651   11.33717    .288598
                         400.    .048243    .026684    .235596    .391479    1.06904     .01335    .008381   2674.486   53.48971
                          1.0        1.0        0.0        0.0        0.0
Times of minima :     .050527    .056975    .063642    .050527    .056975    .063642    .049415    .056975    .063642        0.0
                          0.0        0.0    .070681    .056698    .063933        .01    .016667    .103333     .04998    .075867
                      .061307    .068451    .094799     .06184    .049413    .094799     .06184    .049361    .062014    .065972
                      .054589    .061618    .108317        0.0        0.0        0.0        0.0        0.0        0.0        0.0
                          0.0        0.0        0.0        0.0        0.0        0.0        0.0        0.0        0.0        0.0
                          0.0        0.0        0.0        0.0        0.0

Blank card terminating all plot cards.            |BLANK PLOT

Memory storage figures for the preceding, now-completed data case.  -------------------------------  Present   Program
A value of  "-9999"  indicates that no figure is available.         28-Feb-22  19:20:10              figure     limit  (name)
     Size List 1.   Number of electric network nodes.                                                   37      6000  (LBUS)
     Size List 2.   Number of electric network branches.                                                39     10000  (LBRNCH)
     Size List 3.   Number of data values in R, L, C tables.                                            45    192000  (LDATA)
     Size List 4.   Number of electric network sources.                                                  3       900  (LEXCT)
     Size List 5.   Storage for [Y] and triangularized [Y].   No. times =    3     Factors =    66     189    420000  (LYMAT)
     Size List 6.   Number of entries in switch table.                  No. flops = 18                  21      1200  (LSWTCH)
     Size List 7.   Number of distinct ALPHANUMERIC data names plus program SPY variables.              25     15000  (LSIZE7)
     Size List 8.   History points of distributed lines.                                              1856    120000  (LPAST)
     Size List 9.   Number of nonlinear elements.                                                        0      2250  (LNONL)
     Size List 10.  Points of nonlinear characteristics.                                                 0      3800  (LCHAR)
     Size List 11.  Number of Type-59 S.M. outputs.                                                      0       720  (LSMOUT)
     Size List 12.  Total number of EMTP output variables.                                              55      2000  (LSIZ12)
     Size List 13.  Working space for batch/SPY plotting.                                            -9999     72800  (LSIZ13)
     Size List 14.  S.M./U.M. connections to TACS.                                                   -9999       510  (LBSTAC)
     Size List 15.  Character storage in bytes for MODELS.                                            3294     90000  (LCTACS)
     Size List 16.  Total number of Type-59 S.M. masses.                                                 0       800  (LIMASS)
     Size List 17.  Number of Type-59 Synchronous machines.                                              0        90  (LSYN)
     Size List 18.  Branch and switch power/energy outputs.                                              0       254  (MAXPE)
     Size List 19.  Total floating-point TACS table space.                                              23    120000  (LTACST)
     Size List 20.  Non-copied recursive convolution data.                                               0    100000  (LFSEM)
     Size List 21.  Total modal/phase [T] matrix storage.                                                9      3000  (LFD)
     Size List 22.  Total recursive convolution history.                                                 0     15000  (LHIST)
     Size List 23.  Giant vectors for renumbering, phasors;  also extrema accumulation.                  93    192000  (LSIZ23)
     Size List 24.  Peak phases of compensation for data.                                                0       120  (LCOMP)
     Size List 25.  Total table space for all U.M usage.                                             -9999     45000  (LSPCUM)
     Size List 26.  Square of max number of coupled phases.                                              9    260000  (LSIZ26)
     Size List 27.  Maximum number of MODELS top variables.                                             44       600  (LSIZ27)
     Size List 28.  MODELS.  Total work space is divided into INTEGER and REAL.  1st, REAL:           1780    210000  (LRTACS)
                             Second  and last,  statistics for INTEGER work space.                    6838         0  (LITACS)
     Size List 29.  RAM disk used by "TAPSAV" table saving (limit is "LABCOM" size LTLABL).          -9999       600  (LSIZ29)
     Size List 30.  Taku Noda frequency-dependent circuits.                                              0        19  (LSIZ30)
Timing figures characterizing central processor (CP) solution speed.  ----------------------------   CP sec  Wait sec  Real sec
     Data input time (through blank card ending branches) ....                                       0.031     0.000     0.031
     Node renumbering and phasor solution  ....                                                      0.016     0.000     0.016
     After phasor solution, but before time-step loop  ....                                          0.000     0.000     0.000
     Integration of equations (time-step loop)  ....                                                 1.453     0.000     1.453
     Plotting or STATISTICS termination overlays ....                                                0.016     0.000     0.016
                                                                                                    ---------------------------
                                                                                          Totals      1.516     0.000     1.516

