   ---   236   cards of disk file read into card cache cells  1   onward.
 Comment card is ignored.      |C   LBUS  LBRNCH   LDATA   LEXCT   LYMAT  LSWTCH
 Limit CIDEAL cards =   200    |CARDS        200 { Limit of CIDEAL will be 2 mor
 1st card (Lists  1-10).       |    6000   10000  192000     900  420000    120
 Comment card is ignored.      |C LSMOUT  LSIZ12  LSIZ13  LBSTAC  LCTACS  LIMASS
 2nd card (Lists 11-20).       |     720    2000   72800     510   90000     80
 Comment card is ignored.      |C    LFD   LHIST  LSIZ23   NCOMP  LSPCUM  LSIZ26
 3rd card (Lists 21-30).       |    3000   15000  192000     120   45000  26000
 4th card (Lists 31-32).       |     200     300     { Optional card for Lists
 Comment card is ignored.      |C  LWORK  LMARTI
 Supplemental offsets.         |  840000     742
 <===> Done with  "/"-card sorting by data class.    Remember that the source file appears different from interpreted input data.
Alternative Transients Program (ATP),  GNU Linux or DOS.  All rights reserved by Can/Am user group of Portland, Oregon, USA.
 Date (dd-mth-yy) and time of day (hh.mm.ss) = 28-Feb-22  19:17:47   Name of disk plot file is  draw6.3\bernal\energizacion1008.pl4
Consult the 860-page ATP Rule Book of the Can/Am EMTP User Group in Portland,  Oregon, USA.  Source code date is 12 August 2008.
Total size of LABCOM tables = 10913436 INTEGER words.  31 VARDIM  List Sizes follow:  6002  10K  192K  900  420K  1200  15K
  120K  2250  3800  720  2K  72800  510  90K  800  90  254  120K  100K  3K  15K  192K  120  45K  260K  600  210K  1100  60  200
--------------------------------------------------+--------------------------------------------------------------------------------
Descriptive interpretation of input data cards.   |  Input data card images are shown below, all 80 columns, character by character
                                                  0         1         2         3         4         5         6         7         8
                                                  012345678901234567890123456789012345678901234567890123456789012345678901234567890
--------------------------------------------------+--------------------------------------------------------------------------------
Comment card.   NUMDCD = 1.                       |C data:C:\ATP\ATPDRAW6.3\BERNAL\ENERGIZACION1008.ATP
Marker card preceding new EMTP data case.         |BEGIN NEW DATA CASE
Comment card.   NUMDCD = 3.                       |C --------------------------------------------------------
Comment card.   NUMDCD = 4.                       |C Generated by ATPDRAW  febrero, lunes 28, 2022
Comment card.   NUMDCD = 5.                       |C A Bonneville Power Administration program
Comment card.   NUMDCD = 6.                       |C by H. K. Høidalen at SEfAS/NTNU - NORWAY 1994-2016
Comment card.   NUMDCD = 7.                       |C --------------------------------------------------------
Comment card.   NUMDCD = 8.                       |C  dT  >< Tmax >< Xopt >< Copt ><Epsiln>
Misc. data.     1.000E-06   1.200E-01   5.000E+01 |   1.E-6     .12     50.
Misc. data.    500    1  0  1  1  0  0  0  0  0   |     500       1       0       1       1       0       0       0       0
  ///  Warning.  Nonzero XOPT or COPT differs from the power frequency of  6.00000000E+01  Hz.   Did the user really want this?
No TACS data,  but MODELS data begins (next).     |MODELS
      Another ordinary MODELS data card.          |OUTPUT
      Another ordinary MODELS data card.          |  AnVol
      Another ordinary MODELS data card.          |  LONG
      Another ordinary MODELS data card.          |  R0F
      Another ordinary MODELS data card.          |  R1F
      Another ordinary MODELS data card.          |  X0F
      Another ordinary MODELS data card.          |  X1F
      Another ordinary MODELS data card.          |  RDIVX
      Another ordinary MODELS data card.          |  RINSER
      Another ordinary MODELS data card.          |  CLOSE1
      Another ordinary MODELS data card.          |  RPpos
      Another ordinary MODELS data card.          |  RPcero
      Another ordinary MODELS data card.          |  LPpos
      Another ordinary MODELS data card.          |  LPcero
      Another ordinary MODELS data card.          |  CPpos
      Another ordinary MODELS data card.          |  CPcero
      Another ordinary MODELS data card.          |  Xp
      Another ordinary MODELS data card.          |  CR
      Another ordinary MODELS data card.          |  SIMET
      Another ordinary MODELS data card.          |  ENC1
      Another ordinary MODELS data card.          |  ENC2
      Another ordinary MODELS data card.          |  ENC1AS
      Another ordinary MODELS data card.          |  ENC2AS
      Another ordinary MODELS data card.          |MODEL DEFAULT
      Another ordinary MODELS data card.          |DATA AnVol,LONG,R0F,R1F,X0F,X1F,RDIVX,RINSER,CLOSE1,RPpos,RPcero,LPpos,LPcero
      Another ordinary MODELS data card.          |OUTPUT o1,o2,o3, o4, o5, o6, o7, o8, o9, o10, o11, o12, o13
      Another ordinary MODELS data card.          |VAR o1,o2,o3, o4, o5, o6, o7, o8, o9, o10, o11, o12, o13
      Another ordinary MODELS data card.          |INIT
      Another ordinary MODELS data card.          |  o1:=AnVol
      Another ordinary MODELS data card.          |  o2:=LONG
      Another ordinary MODELS data card.          |  o3:=R0F
      Another ordinary MODELS data card.          |  o4:=R1F
      Another ordinary MODELS data card.          |  o5:=X0F
      Another ordinary MODELS data card.          |  O6:=X1F
      Another ordinary MODELS data card.          |  o7:=RDIVX
      Another ordinary MODELS data card.          |  o8:=RINSER
      Another ordinary MODELS data card.          |  o9:=CLOSE1
      Another ordinary MODELS data card.          |  o10:=RPpos
      Another ordinary MODELS data card.          |  o11:=RPcero
      Another ordinary MODELS data card.          |  o12:=LPpos
      Another ordinary MODELS data card.          |  o13:=LPcero
      Another ordinary MODELS data card.          |
      Another ordinary MODELS data card.          |ENDINIT
      Another ordinary MODELS data card.          |EXEC
      Another ordinary MODELS data card.          |ENDEXEC
      Another ordinary MODELS data card.          |ENDMODEL
      Another ordinary MODELS data card.          |MODEL DEFAULT1
      Another ordinary MODELS data card.          |DATA CPpos,CPcero,Xp,CR,SIMET,ENC1,ENC2,ENC1AS,ENC2AS
      Another ordinary MODELS data card.          |OUTPUT o1, o2, o3, o4, o5, o6, o7, o8, o9
      Another ordinary MODELS data card.          |VAR o1, o2, o3, o4, o5, o6, o7, o8, o9
      Another ordinary MODELS data card.          |INIT
      Another ordinary MODELS data card.          |  o1:=CPpos
      Another ordinary MODELS data card.          |  o2:=CPcero
      Another ordinary MODELS data card.          |  o3:=Xp
      Another ordinary MODELS data card.          |  o4:=CR
      Another ordinary MODELS data card.          |  o5:=SIMET
      Another ordinary MODELS data card.          |  o6:=ENC1
      Another ordinary MODELS data card.          |  o7:=ENC2
      Another ordinary MODELS data card.          |  o8:=ENC1AS
      Another ordinary MODELS data card.          |  o9:=ENC2AS
      Another ordinary MODELS data card.          |
      Another ordinary MODELS data card.          |ENDINIT
      Another ordinary MODELS data card.          |EXEC
      Another ordinary MODELS data card.          |ENDEXEC
      Another ordinary MODELS data card.          |ENDMODEL
      Another ordinary MODELS data card.          |USE DEFAULT AS DEFAULT
      Another ordinary MODELS data card.          |DATA
      Another ordinary MODELS data card.          |  AnVol:=      0.0
      Another ordinary MODELS data card.          |  LONG:= 385.3853
      Another ordinary MODELS data card.          |  R0F:=  1.37759
      Another ordinary MODELS data card.          |  R1F:= 1.745056
      Another ordinary MODELS data card.          |  X0F:= 8.556737
      Another ordinary MODELS data card.          |  X1F:= 10.83921
      Another ordinary MODELS data card.          |  RDIVX:= 0.160995
      Another ordinary MODELS data card.          |  RINSER:=     360.
      Another ordinary MODELS data card.          |  CLOSE1:= 0.052813
      Another ordinary MODELS data card.          |  RPpos:= 0.026133
      Another ordinary MODELS data card.          |  RPcero:= 0.203454
      Another ordinary MODELS data card.          |  LPpos:= 0.299073
      Another ordinary MODELS data card.          |  LPcero:= 1.390568
      Another ordinary MODELS data card.          |OUTPUT
      Another ordinary MODELS data card.          |  AnVol:=o1
      Another ordinary MODELS data card.          |  LONG:=o2
      Another ordinary MODELS data card.          |  R0F:=o3
      Another ordinary MODELS data card.          |  R1F:=o4
      Another ordinary MODELS data card.          |  X0F:=o5
      Another ordinary MODELS data card.          |  X1F:=o6
      Another ordinary MODELS data card.          |  RDIVX:=o7
      Another ordinary MODELS data card.          |  RINSER:=o8
      Another ordinary MODELS data card.          |  CLOSE1:=o9
      Another ordinary MODELS data card.          |  RPpos:=o10
      Another ordinary MODELS data card.          |  RPcero:=o11
      Another ordinary MODELS data card.          |  LPpos:=o12
      Another ordinary MODELS data card.          |  LPcero:=o13
      Another ordinary MODELS data card.          |ENDUSE
      Another ordinary MODELS data card.          |USE DEFAULT1 AS DEF
      Another ordinary MODELS data card.          |DATA
      Another ordinary MODELS data card.          |  CPpos:= 0.009897
      Another ordinary MODELS data card.          |  CPcero:= 0.008654
      Another ordinary MODELS data card.          |  Xp:= 1283.863
      Another ordinary MODELS data card.          |  CR:= 25.67725
      Another ordinary MODELS data card.          |  SIMET:=       1.
      Another ordinary MODELS data card.          |  ENC1:=       1.
      Another ordinary MODELS data card.          |  ENC2:=      0.0
      Another ordinary MODELS data card.          |  ENC1AS:=      0.0
      Another ordinary MODELS data card.          |  ENC2AS:=      0.0
      Another ordinary MODELS data card.          |OUTPUT
      Another ordinary MODELS data card.          |  CPpos:=o1
      Another ordinary MODELS data card.          |  CPcero:=o2
      Another ordinary MODELS data card.          |  Xp:=o3
      Another ordinary MODELS data card.          |  CR:=o4
      Another ordinary MODELS data card.          |  SIMET:=o5
      Another ordinary MODELS data card.          |  ENC1:=o6
      Another ordinary MODELS data card.          |  ENC2:=o7
      Another ordinary MODELS data card.          |  ENC1AS:=o8
      Another ordinary MODELS data card.          |  ENC2AS:=o9
      Another ordinary MODELS data card.          |ENDUSE
      Another ordinary MODELS data card.          |RECORD
      Another ordinary MODELS data card.          |  DEFAULT.o1 AS AnVOL
      Another ordinary MODELS data card.          |  DEFAULT.o2 AS LONG
      Another ordinary MODELS data card.          |  DEFAULT.o3 AS R0F
      Another ordinary MODELS data card.          |  DEFAULT.o4 AS R1F
      Another ordinary MODELS data card.          |  DEFAULT.o5 AS X0F
      Another ordinary MODELS data card.          |  DEFAULT.o6 AS X1F
      Another ordinary MODELS data card.          |  DEFAULT.o7 AS RDIVX
      Another ordinary MODELS data card.          |  DEFAULT.o8 AS RINSER
      Another ordinary MODELS data card.          |  DEFAULT.o9 AS CLOSE1
      Another ordinary MODELS data card.          |  DEFAULT.o10 AS RPpos
      Another ordinary MODELS data card.          |  DEFAULT.o11 AS RPcero
      Another ordinary MODELS data card.          |  DEFAULT.o12 AS LPpos
      Another ordinary MODELS data card.          |  DEFAULT.o13 AS LPcero
      Another ordinary MODELS data card.          |  DEF.o1 AS CPpos
      Another ordinary MODELS data card.          |  DEF.o2 AS CPcero
      Another ordinary MODELS data card.          |  DEF.o3 AS Xp
      Another ordinary MODELS data card.          |  DEF.o4 AS CR
      Another ordinary MODELS data card.          |  DEF.o5 AS SIMET
      Another ordinary MODELS data card.          |  DEF.o6 AS ENC1
      Another ordinary MODELS data card.          |  DEF.o7 AS ENC2
      Another ordinary MODELS data card.          |  DEF.o8 AS ENC1AS
      Another ordinary MODELS data card.          |  DEF.o9 AS ENC2AS
Termination of data for Laurent Dube`s MODELS.    |ENDMODELS
Comment card.   NUMDCD = 153.                     |C        1         2         3         4         5         6         7         8
Comment card.   NUMDCD = 154.                     |C 345678901234567890123456789012345678901234567890123456789012345678901234567890
Optional blank card follows last of MODELS data.  |BLANK MODELS
Comment card.   NUMDCD = 156.                     |C < n1 >< n2 ><ref1><ref2>< R  >< L  >< C  >
Comment card.   NUMDCD = 157.                     |C < n1 >< n2 ><ref1><ref2>< R  >< A  >< B  ><Leng><><>0
1st of coupled R-L.   1.37760E+00  2.72369E-02    |51IFUENASB1A              1.37768.5567367917
2nd coil. 1.745E+00 3.450E-02 0.000E+00 0.000E+00 |52IFUENBSB1B              1.7451  10.8392061
Zca, Zcc=-1.225E-01-2.422E-03 1.623E+00 3.208E-02 |53IFUENCSB1C
Series R-L-C.   1.000E+09  0.000E+00  0.000E+00   |  SB1A                      1.E9                                               0
Series R-L-C.   1.000E+09  0.000E+00  0.000E+00   |  SB1B                      1.E9                                               0
Series R-L-C.   1.000E+09  0.000E+00  0.000E+00   |  SB1C                      1.E9                                               0
Series R-L-C.   1.284E+01  2.043E+00  0.000E+00   |  RSNSHA                  12.839641.93                                         0
Series R-L-C.   1.284E+01  2.043E+00  0.000E+00   |  RSNSHB                  12.839641.93                                         0
Series R-L-C.   1.284E+01  2.043E+00  0.000E+00   |  RSNSHC                  12.839641.93                                         0
Series R-L-C.   1.000E+09  0.000E+00  0.000E+00   |  RSNNHA                    1.E9                                               0
Series R-L-C.   1.000E+09  0.000E+00  0.000E+00   |  RSNNHB                    1.E9                                               0
Series R-L-C.   1.000E+09  0.000E+00  0.000E+00   |  RSNNHC                    1.E9                                               0
Series R-L-C.   1.000E+09  0.000E+00  0.000E+00   |  SE2A                      1.E9                                               0
Series R-L-C.   1.000E+09  0.000E+00  0.000E+00   |  SE2B                      1.E9                                               0
Series R-L-C.   1.000E+09  0.000E+00  0.000E+00   |  SE2C                      1.E9                                               0
Series R-L-C.   2.500E+02  0.000E+00  3.000E-10   |  X0001B                    250.       .0003                                   0
Series R-L-C.   2.500E+02  0.000E+00  3.000E-10   |  X0002B                    250.       .0003                                   0
Series R-L-C.   1.000E-06  0.000E+00  0.000E+00   |  X0001ALN1A               1.E-6                                               0
Series R-L-C.   1.000E-06  0.000E+00  0.000E+00   |  SB1A  X0002A             1.E-6                                               0
Series R-L-C.   1.000E-06  0.000E+00  0.000E+00   |  X0001BLN1B               1.E-6                                               0
Series R-L-C.   1.000E-06  0.000E+00  0.000E+00   |  SB1B  X0002B             1.E-6                                               0
Series R-L-C.   1.000E-06  0.000E+00  0.000E+00   |  X0001CLN1C               1.E-6                                               0
Series R-L-C.   1.000E-06  0.000E+00  0.000E+00   |  SB1C  X0002C             1.E-6                                               0
Series R-L-C.   3.600E+02  0.000E+00  0.000E+00   |  XX0005X0002A              360.                                               0
Series R-L-C.   3.600E+02  0.000E+00  0.000E+00   |  XX0003X0002B              360.                                               0
Series R-L-C.   3.600E+02  0.000E+00  0.000E+00   |  XX0004X0002C              360.                                               0
Series R-L-C.   2.500E+02  0.000E+00  3.000E-10   |  X0001A                    250.       .0003                                   0
Series R-L-C.   1.000E+06  0.000E+00  0.000E+00   |  X0001AX0002A              1.E6                                               0
Series R-L-C.   1.000E+06  0.000E+00  0.000E+00   |  X0001BX0002B              1.E6                                               0
Series R-L-C.   1.000E+06  0.000E+00  0.000E+00   |  X0001CX0002C              1.E6                                               0
Series R-L-C.   2.500E+02  0.000E+00  3.000E-10   |  X0002C                    250.       .0003                                   0
Series R-L-C.   2.500E+02  0.000E+00  3.000E-10   |  X0002A                    250.       .0003                                   0
Series R-L-C.   2.500E+02  0.000E+00  3.000E-10   |  X0001C                    250.       .0003                                   0
Series R-L-C.   1.250E+02  0.000E+00  6.000E-10   |  X0001AX0002A              125.       .0006                                   0
Series R-L-C.   1.250E+02  0.000E+00  6.000E-10   |  X0001BX0002B              125.       .0006                                   0
Series R-L-C.   1.250E+02  0.000E+00  6.000E-10   |  X0001CX0002C              125.       .0006                                   0
 2.034E-01 1.391E+00 8.650E-03 7.153E+02 2.385E-03|-1LN1A  VFF2A             .203451.3906.00865385.39 0 0                         0
 2.613E-02 2.991E-01 9.900E-03 3.101E+02 1.183E-03|-2LN1B  VFF2B             .02613.29907 .0099385.39 0 0                         0
3rd or later transposed distributed phase.        |-3LN1C  VFF2C                                                                  0
Blank card ending branches.  IBR, NTOT = 39  31   |BLANK BRANCH
Comment card.   NUMDCD = 198.                     |C < n 1>< n 2>< Tclose ><Top/Tde ><   Ie   ><Vf/CLOP ><  type  >
Switch.  -1.00E+00  1.00E+01  0.00E+00  0.00E+00  |  LN1A  COMPA        -1.       10.                                             0
Switch.  -1.00E+00  1.00E+01  0.00E+00  0.00E+00  |  LN1B  COMPB        -1.       10.                                             0
Switch.  -1.00E+00  1.00E+01  0.00E+00  0.00E+00  |  LN1C  COMPC        -1.       10.                                             0
Switch.  -1.00E+00  1.00E+01  0.00E+00  0.00E+00  |  VFF2A RSNNHA       -1.       10.                                             0
Switch.  -1.00E+00  1.00E+01  0.00E+00  0.00E+00  |  VFF2B RSNNHB       -1.       10.                                             0
Switch.  -1.00E+00  1.00E+01  0.00E+00  0.00E+00  |  VFF2C RSNNHC       -1.       10.                                             0
Switch.   2.00E+00 -1.00E+00  0.00E+00  0.00E+00  |  VFF2A SE2A          2.       -1.                                             0
Switch.   2.00E+00 -1.00E+00  0.00E+00  0.00E+00  |  VFF2B SE2B          2.       -1.                                             0
Switch.   2.00E+00 -1.00E+00  0.00E+00  0.00E+00  |  VFF2C SE2C          2.       -1.                                             0
Switch.   5.28E-02  1.00E+03  0.00E+00  0.00E+00  |  X0001BXX0003 .05281255      1.E3                                             0
Switch.   5.28E-02  1.00E+03  0.00E+00  0.00E+00  |  X0001CXX0004 .05281255      1.E3                                             0
Switch.   6.03E-02  1.00E+03  0.00E+00  0.00E+00  |  XX0005X0002A .06031255      1.E3                                             0
Switch.   6.03E-02  1.00E+03  0.00E+00  0.00E+00  |  XX0003X0002B .06031255      1.E3                                             0
Switch.   6.03E-02  1.00E+03  0.00E+00  0.00E+00  |  XX0004X0002C .06031255      1.E3                                             0
Switch.   5.28E-02  1.00E+03  0.00E+00  0.00E+00  |  X0001AXX0005 .05281255      1.E3                                             0
Permanently-closed switch used for metering.      |  VFUENAIFUENA                                        MEASURING                1
Permanently-closed switch used for metering.      |  VFUENBIFUENB                                        MEASURING                1
Permanently-closed switch used for metering.      |  VFUENCIFUENC                                        MEASURING                1
Permanently-closed switch used for metering.      |  COMPA RSNSHA                                        MEASURING                1
Permanently-closed switch used for metering.      |  COMPB RSNSHB                                        MEASURING                1
Permanently-closed switch used for metering.      |  COMPC RSNSHC                                        MEASURING                1
Blank card ending switches.   KSWTCH = 21.        |BLANK SWITCH
Comment card.   NUMDCD = 221.                     |C < n 1><>< Ampl.  >< Freq.  ><Phase/T0><   A1   ><   T1   >< TSTART >< TSTOP  >
Source.   4.29E+05  5.00E+01  0.00E+00 -1.00E+00  |14VFUENA  428660.705       50.                                     -1.      100.
Source.   4.29E+05  5.00E+01 -1.20E+02 -1.00E+00  |14VFUENB  428660.705       50.     -120.                           -1.      100.
Source.   4.29E+05  5.00E+01 -2.40E+02 -1.00E+00  |14VFUENC  428660.705       50.     -240.                           -1.      100.
Blank card ends electric sources.  KCONST = 3     |BLANK SOURCE
Pi-equivalent branches of distributed circuits are added to the table of List Size 3 between indices  40   and  45.

Sinusoidal steady-state phasor solution, branch by branch.   All flows are away from a bus,  and the real part,  magnitude,  or  "P"
is printed above the imaginary part,  the angle,  or  "Q".   The first solution frequency  =  5.00000000E+01  Hertz.
  Bus K                        Phasor  node  voltage              Phasor  branch  current               Power flow       Power loss
             Bus M         Rectangular            Polar          Rectangular            Polar            P  and  Q        P  and  Q

 IFUENA                    428660.705       428660.705      .42945623759496  .44584525416798      92045.506787052  .17344373575361
                                  0.0              0.0       .1197719944515       15.5833717      -25670.77379042        1.0772978

            SB1A      428661.25378925  428661.25381685       -.429456237595  .44584525416798      -92045.33334332
                      -4.863978777743       -0.0006501      -.1197719944515     -164.4166283      25671.851088222

 IFUENB                  -214330.3525       428660.705      -.1110025289415  .44584525416564      92045.506786661   .1734437357516
                      -371231.0601341     -120.0000000       -.431806008794     -104.4166283      -25670.77378996        1.0772978

            SB1B      -214334.8392238  428661.25381685      .11100252894151  .44584525416564      -92045.33334293
                      -371229.1034102     -120.0006501      .43180600879402       75.5833717      25671.851087761

 IFUENC                  -214330.3525       428660.705      -.3184537086571  .44584525416523      92045.506786105  .17344373575275
                      371231.06013415      120.0000000      .31203401433854      135.5833717      -25670.77379162        1.0772978

            SB1C      -214326.4145654  428661.25381685      .31845370865706  .44584525416523      -92045.33334237
                      371233.96738897      119.9993499      -.3120340143385      -44.4166283      25671.851089427

 SB1A                 428661.25378925  428661.25381685      .42866125379E-3  .42866125382E-3      91.875235261916  91.875235261916
                      -4.863978777743       -0.0006501      -.4863978778E-8       -0.0006501       .236110434E-19        0.0000000

            TERRA                 0.0              0.0      -.4286612538E-3  .42866125382E-3                  0.0
                                  0.0              0.0      .48639787777E-8      179.9993499                  0.0

 SB1B                 -214334.8392238  428661.25381685      -.2143348392E-3  .42866125382E-3      91.875235261916  91.875235261916
                      -371229.1034102     -120.0006501      -.3712291034E-3     -120.0006501      .3549244232E-14        0.0000000

            TERRA                 0.0              0.0      .21433483922E-3  .42866125382E-3                  0.0
                                  0.0              0.0      .37122910341E-3       59.9993499                  0.0

 SB1C                 -214326.4145654  428661.25381685      -.2143264146E-3  .42866125382E-3      91.875235261916  91.875235261916
                      371233.96738897      119.9993499      .37123396739E-3      119.9993499      .1169203623E-14        0.0000000

            TERRA                 0.0              0.0      .21432641457E-3  .42866125382E-3                  0.0
                                  0.0              0.0      -.3712339674E-3      -60.0006501                  0.0

 RSNSHA               -86.01910317135  1443.0245920887        2.24037319078  2.2474974775285      32.426466709354  32.426466709354
                      1440.4584989726       93.4174435      .17880961252438        4.5632421      1621.2728230186     1621.2728230

            TERRA                 0.0              0.0       -2.24037319078  2.2474974775285                  0.0
                                  0.0              0.0      -.1788096125244     -175.4367579                  0.0

 RSNSHB               1290.4832047931  1443.0245920887       -.965332928503  2.2474974775285      32.426466709354  32.426466709354
                      -645.7345209292      -26.5825565      -2.029624903435     -115.4367579      1621.2728230186     1621.2728230

            TERRA                 0.0              0.0      .96533292850303  2.2474974775285                  0.0
                                  0.0              0.0      2.0296249034353       64.5632421                  0.0

 RSNSHC               -1204.464101622  1443.0245920887      -1.275040262277  2.2474974775285      32.426466709354  32.426466709354
                      -794.7239780434     -146.5825565      1.8508152909109      124.5632421      1621.2728230186     1621.2728230

            TERRA                 0.0              0.0       1.275040262277  2.2474974775285                  0.0
                                  0.0              0.0      -1.850815290911      -55.4367579                  0.0

 RSNNHA               -82.53472273942  1548.7591276487      -.8253472274E-7  .15487591276E-5      .00119932741774  .00119932741774
                      1546.5583904326       93.0547890      .15465583904E-5       93.0547890      .2058025364E-20        0.0000000

            TERRA                 0.0              0.0      .82534722739E-7  .15487591276E-5                  0.0
                                  0.0              0.0       -.154655839E-5      -86.9452110                  0.0

 RSNNHB               1380.6262159204  1548.7591276487      .13806262159E-5  .15487591276E-5      .00119932741774  .00119932741774
                      -701.8020286297      -26.9452110      -.7018020286E-6      -26.9452110      -.223934335E-19        0.0000000

            TERRA                 0.0              0.0      -.1380626216E-5  .15487591276E-5                  0.0
                                  0.0              0.0      .70180202863E-6      153.0547890                  0.0

 RSNNHC               -1298.091493181  1548.7591276487      -.1298091493E-5  .15487591276E-5      .00119932741774  .00119932741774
                       -844.756361803     -146.9452110      -.8447563618E-6     -146.9452110      .5664532835E-20        0.0000000

            TERRA                 0.0              0.0      .12980914932E-5  .15487591276E-5                  0.0
                                  0.0              0.0       .8447563618E-6       33.0547890                  0.0

 X0001B               1290.4832046473  1443.0245921424      .60861910544E-4  .13600186369E-3      .23120633659E-5  .23120633659E-5
                      -645.7345213405      -26.5825565      .12162374263E-3       63.4160935      -.0981270169144       -0.0981270

            TERRA                 0.0              0.0      -.6086191054E-4  .13600186369E-3                  0.0
                                  0.0              0.0      -.1216237426E-3     -116.5839065                  0.0

 X0002B               -214334.8392237  428661.25381642      .03498704273769  .04040037136483      .20402375080177  .20402375080177
                      -371229.1034098     -120.0006501      -.0202014070522      -30.0020001      -8659.036919546    -8659.0369195

            TERRA                 0.0              0.0      -.0349870427377  .04040037136483                  0.0
                                  0.0              0.0      .02020140705218      149.9979999                  0.0

 X0001A                -86.0191027422  1443.0245921424      .42915738163174   .4364369472948      38.713778741962  .95238604489E-7
                       1440.458499052       93.4174435      .07937978807604       10.4793686      312.50578797425        0.0000000

            LN1A      -86.01910317135  1443.0245920887      -.4291573816317   .4364369472948      -38.71377864672
                      1440.4584989726       93.4174435       -.079379788076     -169.5206314      -312.5057879742

 SB1A                 428661.25378925  428661.25381685      .42899046093225  .44539661810369      91945.503139193  .99189072955E-7
                      -4.863978777743       -0.0006501      .11977199942947       15.5994685      -25671.85102239              0.0

            X0002A    428661.25378882  428661.25381642      -.4289904609323  .44539661810369      -91945.50313909
                      -4.863978897515       -0.0006501      -.1197719994295     -164.4005315      25671.851022391

 X0001B               1290.4832046473  1443.0245921424      -.1458336100768  .43643695110174      38.713907462515  .95238606147E-7
                      -645.7345213405      -26.5825565      -.4113511522519     -109.5206079      312.50577479584              0.0

            LN1B      1290.4832047931  1443.0245920887      .14583361007681  .43643695110174      -38.71390736728
                      -645.7345209292      -26.5825565      .41135115225188       70.4793921      -312.5057747958

 SB1B                 -214334.8392238  428661.25381685      -.1107691787183  .44542802765118      91951.495080699  .99203070647E-7
                      -371229.1034102     -120.0006501      -.4314351826906     -104.3994333       -25675.4238082              0.0

            X0002B    -214334.8392237  428661.25381642      .11076917871833  .44542802765118       -91951.4950806
                      -371229.1034098     -120.0006501      .43143518269062       75.6005667      25675.423808201

 X0001C               -1204.464101905  1443.0245921424      -.2833235157595  .43643693841736      38.713700466897  .95238600617E-7
                      -794.7239777115     -146.5825565      .33197136417584      130.4793544      312.50579121695              0.0

            LN1C      -1204.464101622  1443.0245920887      .28332351575955  .43643693841736      -38.71370037166
                      -794.7239780434     -146.5825565      -.3319713641758      -49.5206456      -312.5057912169

 SB1C                 -214326.4145654  428661.25381685      -.3182212822139  .44540616614019      91947.998439131  .99193329106E-7
                      371233.96738897      119.9993499       .3116438165307      135.5982985      -25670.52364268        0.0000000

            X0002C    -214326.4145651  428661.25381642      .31822128221393  .44540616614019      -91947.99843903
                      371233.96738866      119.9993499      -.3116438165307      -44.4017015      25670.523642682

 XX0005               428661.25378882  428661.25381642                  0.0              0.0                  0.0              0.0
                      -4.863978897515       -0.0006501                  0.0              0.0                  0.0              0.0

            X0002A    428661.25378882  428661.25381642                  0.0              0.0                  0.0
                      -4.863978897515       -0.0006501                  0.0              0.0                  0.0

 XX0003               -214334.8392237  428661.25381642                  0.0              0.0                  0.0              0.0
                      -371229.1034098     -120.0006501                  0.0              0.0                  0.0              0.0

            X0002B    -214334.8392237  428661.25381642                  0.0              0.0                  0.0
                      -371229.1034098     -120.0006501                  0.0              0.0                  0.0

 XX0004               -214326.4145651  428661.25381642                  0.0              0.0                  0.0              0.0
                      371233.96738866      119.9993499                  0.0              0.0                  0.0              0.0

            X0002C    -214326.4145651  428661.25381642                  0.0              0.0                  0.0
                      371233.96738866      119.9993499                  0.0              0.0                  0.0

 X0001A                -86.0191027422  1443.0245921424      -.1357602061E-3  .13600186369E-3      .23120633659E-5  .23120633659E-5
                       1440.458499052       93.4174435      -.8103910663E-5     -176.5839065      -.0981270169144       -0.0981270

            TERRA                 0.0              0.0       .1357602061E-3  .13600186369E-3                  0.0
                                  0.0              0.0      .81039106628E-5        3.4160935                  0.0

 X0001A                -86.0191027422  1443.0245921424      -.4287472728916  .42874970900167      19.481191382265   91913.15648451
                       1440.458499052       93.4174435      .00144532247795      179.8068546      -308.7341639196        0.0000000

            X0002A    428661.25378882  428661.25381642      .42874727289157  .42874970900167      91893.675293128
                      -4.863978897515       -0.0006501      -.0014453224779       -0.1931454      308.73416391964

 X0001B               1290.4832046473  1443.0245921424      .21562532242835  .42874970900167      19.481191382264   91913.15648451
                      -645.7345213405      -26.5825565      .37058336888842       59.8068546      -308.7341639196        0.0000000

            X0002B    -214334.8392237  428661.25381642      -.2156253224283  .42874970900167      91893.675293128
                      -371229.1034098     -120.0006501      -.3705833688884     -120.1931454      308.73416391965

 X0001C               -1204.464101905  1443.0245921424      .21312195046322  .42874970900167      19.481191382264   91913.15648451
                      -794.7239777115     -146.5825565      -.3720286913664      -60.1931454      -308.7341639196        0.0000000

            X0002C    -214326.4145651  428661.25381642      -.2131219504632  .42874970900167      91893.675293128
                      371233.96738866      119.9993499      .37202869136637      119.8068546      308.73416391964

 X0002C               -214326.4145651  428661.25381642      -.0349884530682  .04040037136483      .20402375080184  .20402375080184
                      371233.96738866      119.9993499       -.020198964288     -150.0020001      -8659.036919546    -8659.0369195

            TERRA                 0.0              0.0      .03498845306822  .04040037136483                  0.0
                                  0.0              0.0      .02019896428804       29.9979999                  0.0

 X0002A               428661.25378882  428661.25381642      .14103305347E-5  .04040037136483      .20402375080205  .20402375080205
                      -4.863978897515       -0.0006501      .04040037134022       89.9979999      -8659.036919546    -8659.0369195

            TERRA                 0.0              0.0      -.1410330535E-5  .04040037136483                  0.0
                                  0.0              0.0      -.0404003713402      -90.0020001                  0.0

 X0001C               -1204.464101905  1443.0245921424      .74898295552E-4  .13600186369E-3      .23120633659E-5  .23120633659E-5
                      -794.7239777115     -146.5825565       -.113519832E-3      -56.5839065      -.0981270169144       -0.0981270

            TERRA                 0.0              0.0      -.7489829555E-4  .13600186369E-3                  0.0
                                  0.0              0.0      .11351983197E-3      123.4160935                  0.0

 X0001A                -86.0191027422  1443.0245921424      -.2743410733E-3  .08081741613927      -58.19493232238  .40821592196427
                       1440.458499052       93.4174435      -.0808169505018      -90.1944954      -3.673489249571   -17325.2218212

            X0002A    428661.25378882  428661.25381642      .27434107326E-3  .08081741613927      58.603148244341
                      -4.863978897515       -0.0006501      .08081695050176       89.8055046      -17321.54833193

 X0001B               1290.4832046473  1443.0245921424      -.0698523616543  .08081741613927      -58.19493232238  .40821592196436
                      -645.7345213405      -26.5825565      .04064606158963      149.8055046      -3.673489249571   -17325.2218212

            X0002B    -214334.8392237  428661.25381642      .06985236165428  .08081741613927      58.603148244341
                      -371229.1034098     -120.0006501      -.0406460615896      -30.1944954      -17321.54833193

 X0001C               -1204.464101905  1443.0245921424      .07012670272754  .08081741613927      -58.19493232238  .40821592196355
                      -794.7239777115     -146.5825565      .04017088891213       29.8055046      -3.673489249571   -17325.2218212

            X0002C    -214326.4145651  428661.25381642      -.0701267027275  .08081741613927      58.603148244341
                      371233.96738866      119.9993499      -.0401708889121     -150.1944954      -17321.54833193

 LN1A                 -86.01910317135  1443.0245920887      -1.811215811889  1.8139429522752      6.2872146947668  6.2860153673502
                      1440.4584989726       93.4174435      -.0994299596282     -176.8577988      -1308.767042832    -1308.7670428

            VFF2A     -82.53472273942  1548.7591276487      .82534723455E-7  .15487591262E-5      -.0011993274166
                      1546.5583904326       93.0547890      -.1546558389E-5      -86.9452109      .6137940209E-12

 LN1B                 1290.4832047931  1443.0245920887      .81949903500931  1.8139429522752      6.2872146947674  6.2860153673503
                      -645.7345209292      -26.5825565      1.6182738846462       63.1422012      -1308.767042832    -1308.7670428

            VFF2B     1380.6262159204  1548.7591276487      -.1380626216E-5  .15487591269E-5      -.0011993274171
                      -701.8020286297      -26.9452110      .70180202711E-6      153.0547891       .101577166E-11

 LN1C                 -1204.464101622  1443.0245920887      .99171677687987  1.8139429522752      6.2872146947679  6.2860153673503
                      -794.7239780434     -146.5825565      -1.518843925018      -56.8577988      -1308.767042832    -1308.7670428

            VFF2C     -1298.091493181  1548.7591276487       .1298091493E-5  .15487591275E-5      -.0011993274176
                       -844.756361803     -146.9452110      .84475636178E-6       33.0547890      .4133268404E-13
     Total network loss  P-loss  by summing injections =   2.761284638538E+05

Output for steady-state phasor switch currents.
      Node-K    Node-M            I-real            I-imag            I-magn          Degrees        Power            Reactive
      LN1A      COMPA         2.24037322E+00    1.78809485E-01    2.24749749E+00       4.5632    3.24263738E+01    1.62127284E+03
      LN1B      COMPB        -9.65332926E-01   -2.02962503E+00    2.24749759E+00    -115.4368    3.24265102E+01    1.62127291E+03
      LN1C      COMPC        -1.27504005E+00    1.85081538E+00    2.24749743E+00     124.5632    3.24263016E+01    1.62127279E+03
      VFF2A     RSNNHA       -8.25347228E-08    1.54655839E-06    1.54875913E-06      93.0548    1.19932742E-03   -5.89443639E-14
      VFF2B     RSNNHB        1.38062622E-06   -7.01802026E-07    1.54875913E-06     -26.9452    1.19932742E-03   -1.55147910E-12
      VFF2C     RSNNHC       -1.29809149E-06   -8.44756361E-07    1.54875913E-06    -146.9452    1.19932742E-03    5.16735197E-13
      VFF2A     SE2A              Open              Open              Open             Open          Open              Open
      VFF2B     SE2B              Open              Open              Open             Open          Open              Open
      VFF2C     SE2C              Open              Open              Open             Open          Open              Open
      X0001B    XX0003            Open              Open              Open             Open          Open              Open
      X0001C    XX0004            Open              Open              Open             Open          Open              Open
      XX0005    X0002A            Open              Open              Open             Open          Open              Open
      XX0003    X0002B            Open              Open              Open             Open          Open              Open
      XX0004    X0002C            Open              Open              Open             Open          Open              Open
      X0001A    XX0005            Open              Open              Open             Open          Open              Open
      VFUENA    IFUENA        4.29456238E-01    1.19771994E-01    4.45845254E-01      15.5834    9.20455068E+04   -2.56707738E+04
      VFUENB    IFUENB       -1.11002529E-01   -4.31806009E-01    4.45845254E-01    -104.4166    9.20455068E+04   -2.56707738E+04
      VFUENC    IFUENC       -3.18453709E-01    3.12034014E-01    4.45845254E-01     135.5834    9.20455068E+04   -2.56707738E+04
      COMPA     RSNSHA        2.24037322E+00    1.78809485E-01    2.24749749E+00       4.5632    3.24263738E+01    1.62127284E+03
      COMPB     RSNSHB       -9.65332926E-01   -2.02962503E+00    2.24749759E+00    -115.4368    3.24265102E+01    1.62127291E+03
      COMPC     RSNSHC       -1.27504005E+00    1.85081538E+00    2.24749743E+00     124.5632    3.24263016E+01    1.62127279E+03

Solution at nodes with known voltage.   Nodes that are shorted together by switches are shown as a group of names, with the printed
result applying to the composite group.   The entry "MVA" is  SQRT( P**2 + Q**2 )  in units of power,  while  "P.F."  is the
associated power factor.
              Node                Source  node  voltage             Injected  source  current              Injected  source  power
              name         Rectangular            Polar          Rectangular            Polar            P  and  Q    MVA and P.F.

               VFUENA
              IFUENA       428660.705       428660.705      .42945623759433  .44584525416839      92045.506786916  95558.170486364
                                  0.0              0.0      .11977199445532       15.5833717      -25670.77379124        0.9632406

               VFUENB
              IFUENB     -214330.3525       428660.705      -.1110025289417  .44584525416616      92045.506786769  95558.170485885
                      -371231.0601341     -120.0000000      -.4318060087945     -104.4166283      -25670.77378998        0.9632406

               VFUENC
              IFUENC     -214330.3525       428660.705      -.3184537086558  .44584525416402      92045.506785891  95558.170485427
                      371231.06013415      120.0000000      .31203401433813      135.5833717      -25670.77379143        0.9632406

  +++  Node  "COMPC "  has no connected linear branches.  Add (to ground) the conductance  G = 1.00000000E-18  mhos.
  +++  Node  "COMPB "  has no connected linear branches.  Add (to ground) the conductance  G = 1.00000000E-18  mhos.
  +++  Node  "COMPA "  has no connected linear branches.  Add (to ground) the conductance  G = 1.00000000E-18  mhos.
Card of names for time-step loop output.          |  LN1A  LN1B  LN1C  COMPA COMPB COMPC SB1A  SB1B  SB1C  SE2A  SE2B  SE2C  VFF2A
Card of names for time-step loop output.          |  VFF2B VFF2C IFUENAIFUENBIFUENC
Card of names for time-step loop output.          |-5VFF2A VFF2B VFF2B VFF2C VFF2C VFF2A LN1A  LN1B  LN1B  LN1C  LN1C  LN1A
Card of names for time-step loop output.          |-5SB1A  SB1B  SB1B  SB1C  SB1C  SB1A
Blank card ending requests for output variables.  |BLANK OUTPUT

Column headings for the  55   EMTP output variables follow.  These are divided among the 5 possible classes as follows ....
  First  27     output variables are electric-network voltage differences (upper voltage minus lower voltage);
  Next   6     output variables are branch currents (flowing from the upper node to the lower node);
  Next   22     output variables belong to MODELS (with "MODELS" an internally-added upper name of pair).
   Step      Time      LN1A       LN1B       LN1C       COMPA      COMPB      COMPC      SB1A       SB1B       SB1C       SE2A
 

                       SE2B       SE2C       VFF2A      VFF2B      VFF2C      IFUENA     IFUENB     IFUENC     VFF2A      VFF2B
                                                                                                               VFF2B      VFF2C

                       VFF2C      LN1A       LN1B       LN1C       SB1A       SB1B       SB1C       VFUENA     VFUENB     VFUENC
                       VFF2A      LN1B       LN1C       LN1A       SB1B       SB1C       SB1A       IFUENA     IFUENB     IFUENC

                       COMPA      COMPB      COMPC      MODELS     MODELS     MODELS     MODELS     MODELS     MODELS     MODELS
                       RSNSHA     RSNSHB     RSNSHC     ANVOL      LONG       R0F        R1F        X0F        X1F        RDIVX

                       MODELS     MODELS     MODELS     MODELS     MODELS     MODELS     MODELS     MODELS     MODELS     MODELS
                       RINSER     CLOSE1     RPPOS      RPCERO     LPPOS      LPCERO     CPPOS      CPCERO     XP         CR

                       MODELS     MODELS     MODELS     MODELS     MODELS
                       SIMET      ENC1       ENC2       ENC1AS     ENC2AS
 ***      Phasor I(0) =  2.2403732E+00                     Switch  "LN1A  "  to  "COMPA "  closed in the steady-state.
 ***      Phasor I(0) = -9.6533293E-01                     Switch  "LN1B  "  to  "COMPB "  closed in the steady-state.
 ***      Phasor I(0) = -1.2750400E+00                     Switch  "LN1C  "  to  "COMPC "  closed in the steady-state.
 ***      Phasor I(0) = -8.2534723E-08                     Switch  "VFF2A "  to  "RSNNHA"  closed in the steady-state.
 ***      Phasor I(0) =  1.3806262E-06                     Switch  "VFF2B "  to  "RSNNHB"  closed in the steady-state.
 ***      Phasor I(0) = -1.2980915E-06                     Switch  "VFF2C "  to  "RSNNHC"  closed in the steady-state.
 ***      Phasor I(0) =  4.2945624E-01                     Switch  "VFUENA"  to  "IFUENA"  closed in the steady-state.
 ***      Phasor I(0) = -1.1100253E-01                     Switch  "VFUENB"  to  "IFUENB"  closed in the steady-state.
 ***      Phasor I(0) = -3.1845371E-01                     Switch  "VFUENC"  to  "IFUENC"  closed in the steady-state.
 ***      Phasor I(0) =  2.2403732E+00                     Switch  "COMPA "  to  "RSNSHA"  closed in the steady-state.
 ***      Phasor I(0) = -9.6533293E-01                     Switch  "COMPB "  to  "RSNSHB"  closed in the steady-state.
 ***      Phasor I(0) = -1.2750400E+00                     Switch  "COMPC "  to  "RSNSHC"  closed in the steady-state.
      0       0.0  -86.019103  1290.4832 -1204.4641 -86.019103  1290.4832 -1204.4641 428661.254 -214334.84 -214326.41        0.0
                          0.0        0.0 -82.534723 1380.62622 -1298.0915 428660.705 -214330.35 -214330.35 -1463.1609 2678.71771
                   -1215.5568 -1376.5023 2494.94731  -1118.445 642996.093 -8.4246584 -642987.67 .429456238 -.11100253 -.31845371
                   2.24037322 -.96533293   -1.27504        0.0   385.3853    1.37759   1.745056   8.556737   10.83921    .160995
                         360.    .052813    .026133    .203454    .299073   1.390568    .009897    .008654   1283.863   25.67725
                          1.0        1.0        0.0        0.0        0.0
    500     .5E-3  -310.29733 1375.61032  -1065.313 -310.29733 1375.61032  -1065.313 423384.505 -153623.01  -269761.5        0.0
                          0.0        0.0 -323.45362 1473.41443 -1149.9608  423383.18 -153618.26 -269764.92  -1796.868 2623.37525
                    -826.5072 -1685.9076 2440.92331 -755.01566  577007.51 116138.493   -693146. .405410363 -.04207859 -.36333177
                   2.18481848 -.63594477 -1.5488737        0.0   385.3853    1.37759   1.745056   8.556737   10.83921    .160995
                         360.    .052813    .026133    .203454    .299073   1.390568    .009897    .008654   1283.863   25.67725
                          1.0        1.0        0.0        0.0        0.0
   1000     .1E-2   -526.9353 1426.86547 -899.93017  -526.9353 1426.86547 -899.93017 407682.582 -89128.444 -318554.14        0.0
                          0.0        0.0 -556.40801  1529.9223  -973.5143 407680.557 -89123.572 -318556.98 -2086.3303  2503.4366
                   -417.10629 -1953.8008 2326.79564 -372.99487 496811.026 229425.695 -726236.72 .371403433 .027870703 -.39927414
                   2.07546636 -.29089752 -1.7845687        0.0   385.3853    1.37759   1.745056   8.556737   10.83921    .160995
                         360.    .052813    .026133    .203454    .299073   1.390568    .009897    .008654   1283.863   25.67725
                          1.0        1.0        0.0        0.0        0.0
   1500     .0015  -730.59806  1442.9863 -712.38824 -730.59806  1442.9863 -712.38824 381942.181 -22439.253 -359502.93        0.0
                          0.0        0.0 -775.65899 1548.75705 -773.09806 381939.485 -22434.368 -359505.12  -2324.416  2321.8551
                   2.56093616 -2173.5844 2155.37454 18.2098211 404381.435 337063.675 -741445.11 .328252624 .097133081  -.4253857
                   1.91500928  .06131255 -1.9763217        0.0   385.3853    1.37759   1.745056   8.556737   10.83921    .160995
                         360.    .052813    .026133    .203454    .299073   1.390568    .009897    .008654   1283.863   25.67725
                          1.0        1.0        0.0        0.0        0.0
   2000      .002  -916.27119 1423.57608 -507.30489 -916.27119 1423.57608 -507.30489 346797.098 44802.4651 -391599.56        0.0
                          0.0        0.0 -975.81623 1529.45899 -553.64276 346793.795 44807.2448 -391601.04 -2505.2752 2083.10176
                   422.173472 -2339.8473 1930.88097 408.966293 301994.633 436402.028 -738396.66 .277018803 .164003891 -.44102269
                   1.70739836 .412012857 -2.1194112        0.0   385.3853    1.37759   1.745056   8.556737   10.83921    .160995
                         360.    .052813    .026133    .203454    .299073   1.390568    .009897    .008654   1283.863   25.67725
                          1.0        1.0        0.0        0.0        0.0
   2500     .0025  -1079.3816 1369.11218 -289.73059 -1079.3816 1369.11218 -289.73059 303112.762 110940.977 -414053.74        0.0
                          0.0        0.0 -1151.9428 1472.49918 -320.55633 303108.891 110945.554 -414054.45  -2624.442 1793.05552
                   831.386514 -2448.4938 1658.84277 789.650999 192171.785 524994.715  -717166.5 .218962221 .226837212 -.44579943
                   1.45774546 .752568075 -2.2103137        0.0   385.3853    1.37759   1.745056   8.556737   10.83921    .160995
                         360.    .052813    .026133    .203454    .299073   1.390568    .009897    .008654   1283.863   25.67725
                          1.0        1.0        0.0        0.0        0.0
   3000      .003  -1215.9164 1280.93735  -65.02094 -1215.9164 1280.93735  -65.02094 251964.691   174347.8 -426312.49        0.0
                          0.0        0.0 -1299.7047 1379.28152  -79.57679 251960.441 174352.016 -426312.46 -2678.9863 1458.85831
                   1220.12794 -2496.8538 1345.95829 1150.89547 77616.8909  600660.29 -678277.18 .155512108 .284085999 -.43959811
                    1.1721982 1.07459255 -2.2467909        0.0   385.3853    1.37759   1.745056   8.556737   10.83921    .160995
                         360.    .052813    .026133    .203454    .299073   1.390568    .009897    .008654   1283.863   25.67725
                          1.0        1.0        0.0        0.0        0.0
   3500     .0035  -1322.5098 1161.22081 161.288967 -1322.5098 1161.22081 161.288967 194612.462 233461.577 -428074.04        0.0
                          0.0        0.0 -1415.4636  1252.1014 163.362218 194607.888 233465.353 -428073.24  -2667.565 1088.73918
                   1578.82583 -2483.7306 999.931846 1483.79875 -38849.115 661535.616  -622686.5 .088241367 .334335362 -.42257673
                    .85778749 1.37015708 -2.2279447        0.0   385.3853    1.37759   1.745056   8.556737   10.83921    .160995
                         360.    .052813    .026133    .203454    .299073   1.390568    .009897    .008654   1283.863   25.67725
                          1.0        1.0        0.0        0.0        0.0
   4000      .004  -1396.5388 1012.91128 383.627524 -1396.5388 1012.91128 383.627524 132468.239  286826.75 -419294.99        0.0
                          0.0        0.0 -1496.3696 1094.09066 402.278928 132463.443 286829.997 -419293.44 -2590.4603 691.811733
                   1898.64852 -2409.4501 629.283751 1780.16632 -154358.51 706121.738 -551763.23 .018792583 .376354906 -.39514749
                   .522255247 1.63198374  -2.154239        0.0   385.3853    1.37759   1.745056   8.556737   10.83921    .160995
                         360.    .052813    .026133    .203454    .299073   1.390568    .009897    .008654   1283.863   25.67725
                          1.0        1.0        0.0        0.0        0.0
   4500     .0045  -1436.1805 839.660535  596.51992 -1436.1805 839.660535  596.51992 67062.1982 333129.301  -400191.5        0.0
                          0.0        0.0 -1540.4297  909.13958 631.290073 67057.3081 333131.936 -400189.24 -2449.5692 277.849507
                   2171.71973  -2275.841 243.140615 2032.70037  -266067.1 733320.801  -467253.7  -.0511192  .40910747 -.35798827
                   .173863323 1.85362554  -2.027489        0.0   385.3853    1.37759   1.745056   8.556737   10.83921    .160995
                         360.    .052813    .026133    .203454    .299073   1.390568    .009897    .008654   1283.863   25.67725
                          1.0        1.0        0.0        0.0        0.0
   5000      .005  -1440.4577  645.73414 794.723528 -1440.4577  645.73414 794.723528 4.87826176 371229.096 -371233.97        0.0
                          0.0        0.0 -1546.5583 701.802022  844.75632 -.45661E-7  371231.06 -371231.06 -2248.3604  -142.9543
                   2391.31466 -2086.1918 -148.98939  2235.1812 -371224.22 742463.071 -371238.85 -.11976874 .431784699 -.31201596
                   -.17880963 2.02962489 -1.8508153        0.0   385.3853    1.37759   1.745056   8.556737   10.83921    .160995
                         360.    .052813    .026133    .203454    .299073   1.390568    .009897    .008654   1283.863   25.67725
                          1.0        1.0        0.0        0.0        0.0
   5500     .0055  -1409.2681 435.908618 973.359474 -1409.2681 435.908618 973.359474   -67052.6 400188.018 -333135.42        0.0
                          0.0        0.0 -1514.6064 477.184175 1037.42226 -67057.308 400189.244 -333131.94 -1991.7906 -560.23808
                   2552.02869 -1845.1767 -537.45086 2382.62757 -467240.62 733323.436 -266082.82 -.18547465 .443832677 -.25835803
                   -.52707968 2.15564822 -1.6285684        0.0   385.3853    1.37759   1.745056   8.556737   10.83921    .160995
                         360.    .052813    .026133    .203454    .299073   1.390568    .009897    .008654   1283.863   25.67725
                          1.0        1.0        0.0        0.0        0.0
   6000      .006  -1343.3762 215.348848 1128.02736 -1343.3762 215.348848 1128.02736 -132458.98 419292.964 -286833.98        0.0
                          0.0        0.0 -1445.3618 240.817441 1204.54431 -132463.44  419293.44   -286830. -1686.1792 -963.72687
                   2649.90607 -1558.7251 -912.67851 2471.40356 -551751.95 706126.945   -154375. -.24661088 .444950696 -.19833982
                   -.86237139 2.22859232 -1.3662209        0.0   385.3853    1.37759   1.745056   8.556737   10.83921    .160995
                         360.    .052813    .026133    .203454    .299073   1.390568    .009897    .008654   1283.863   25.67725
                          1.0        1.0        0.0        0.0        0.0
   6500     .0065  -1244.4061 -10.513436 1254.91953 -1244.4061 -10.513436 1254.91953  -194603.8 428073.533 -233469.73        0.0
                          0.0        0.0  -1340.523 -1.4813007  1342.0043 -194607.89  428073.24 -233465.35 -1339.0417 -1343.4856
                    2682.5273 -1233.8927  -1265.433 2499.32563 -622677.33 661543.265 -38865.931 -.30167665 .435113505 -.13343686
                   -1.1764288 2.24666107 -1.0702324        0.0   385.3853    1.37759   1.745056   8.556737   10.83921    .160995
                         360.    .052813    .026133    .203454    .299073   1.390568    .009897    .008654   1283.863   25.67725
                          1.0        1.0        0.0        0.0        0.0
   7000      .007  -1114.7947 -236.11679 1350.91148 -1114.7947 -236.11679 1350.91148 -251956.83 426313.511 -174356.68        0.0
                          0.0        0.0 -1202.6792 -243.74202 1446.42124 -251960.44 426312.457 -174352.02 -958.93721 -1690.1633
                   2649.10046  -878.6779 -1587.0283 2465.70617 -678270.34 600670.194 77600.1466 -.34931235 .414561487 -.06524913
                   -1.4615185 2.20940955 -.74789106        0.0   385.3853    1.37759   1.745056   8.556737   10.83921    .160995
                         360.    .052813    .026133    .203454    .299073   1.390568    .009897    .008654   1283.863   25.67725
                          1.0        1.0        0.0        0.0        0.0
   7500     .0075  -957.73209 -455.90677 1413.63886 -957.73209 -455.90677 1413.63886 -303105.83 414056.232  -110950.4        0.0
                          0.0        0.0 -1035.2209 -480.00129 1515.22219 -303108.89 414054.446 -110945.55 -555.21962 -1995.2235
                   2550.44309 -501.82532 -1869.5456 2371.37095 -717162.07 525006.629 192155.438 -.38834785 .383802101 .004545753
                   -1.7106207 2.11775503 -.40713452        0.0   385.3853    1.37759   1.745056   8.556737   10.83921    .160995
                         360.    .052813    .026133    .203454    .299073   1.390568    .009897    .008654   1283.863   25.67725
                          1.0        1.0        0.0        0.0        0.0
   8000      .008  -777.08958 -664.46952  1441.5591 -777.08958 -664.46952  1441.5591 -346791.39 391603.522 -44812.136        0.0
                          0.0        0.0 -842.27231 -704.44118 1546.71348  -346793.8  391601.04 -44807.245 -137.83113 -2251.1547
                   2388.98579 -112.62006 -2106.0286 2218.64868 -738394.91 436415.659  301979.25 -.41781991 .343591711 .074228194
                   -1.9176017  1.9739544 -.05635262        0.0   385.3853    1.37759   1.745056   8.556737   10.83921    .160995
                         360.    .052813    .026133    .203454    .299073   1.390568    .009897    .008654   1283.863   25.67725
                          1.0        1.0        0.0        0.0        0.0
   8500     .0085  -577.31085 -856.67168 1433.98253 -577.31085 -856.67168 1433.98253 -381937.76 359508.226  22429.539        0.0
                          0.0        0.0 -628.58489   -911.535  1540.1199 -381939.48 359505.117 22434.3679 282.950109 -2451.6549
                   2168.70479 279.360831 -2290.6542 2011.29337 -741445.99 337078.687 404367.304 -.43700368 .294920875 .142082804
                   -2.0773651 1.78154841 .295816758        0.0   385.3853    1.37759   1.745056   8.556737   10.83921    .160995
                         360.    .052813    .026133    .203454    .299073   1.390568    .009897    .008654   1283.863   25.67725
                          1.0        1.0        0.0        0.0        0.0
   9000      .009  -363.31715 -1027.7796 1391.09671 -363.31715 -1027.7796 1391.09671 -407679.58 318560.648 89118.9293        0.0
                          0.0        0.0 -399.41805 -1096.1846 1495.60269 -407680.56 318556.985  89123.572 696.766584 -2591.7873
                   1895.02074  664.46241 -2418.8763 1754.41386 -726240.23 229441.719 496798.507 -.44542743 .238988335 .206439093
                   -2.1859768 1.54527479 .640701993        0.0   385.3853    1.37759   1.745056   8.556737   10.83921    .160995
                         360.    .052813    .026133    .203454    .299073   1.390568    .009897    .008654   1283.863   25.67725
                          1.0        1.0        0.0        0.0        0.0
   9500     .0095  -140.37298 -1173.5823 1313.95524 -140.37298 -1173.5823 1313.95524 -423382.96 269769.045 153613.911        0.0
                          0.0        0.0 -160.41631 -1253.8425 1414.25883 -423383.18 269764.922 153618.258 1093.42621 -2668.1013
                   1574.67514 1033.20928 -2487.5375 1454.32822   -693152. 116155.134 576996.867 -.44288463 .177171788 .265712843
                   -2.2407625 1.27095142 .969811068        0.0   385.3853    1.37759   1.745056   8.556737   10.83921    .160995
                         360.    .052813    .026133    .203454    .299073   1.390568    .009897    .008654   1283.863   25.67725
                          1.0        1.0        0.0        0.0        0.0
  10000       .01  86.0191795 -1290.4833 1204.46411 86.0191795 -1290.4833 1204.46411 -428661.24 214334.833 214326.409        0.0
                          0.0        0.0 82.5346944 -1380.6263 1298.09157 -428660.71 214330.353 214330.352 1463.16096 -2678.7178
                   1215.55688 1376.50247 -2494.9474 1118.44493 -642996.08 8.42422296 642987.651  -.4294329 .110990864  .31844204
                   -2.2403733 .965332972 1.27504024        0.0   385.3853    1.37759   1.745056   8.556737   10.83921    .160995
                         360.    .052813    .026133    .203454    .299073   1.390568    .009897    .008654   1283.863   25.67725
                          1.0        1.0        0.0        0.0        0.0
  10500     .0105  310.297154 -1375.6103 1065.31312 310.297154 -1375.6103 1065.31312 -423384.48 153622.996 269761.489        0.0
                          0.0        0.0 323.453581 -1473.4145 1149.96091 -423383.18 153618.258 269764.922 1796.86808 -2623.3754
                   826.507334 1685.90743 -2440.9234 755.015968 -577007.48 -116138.49 693145.974 -.40540939 .042078111 .363331282
                   -2.1848186 .635944715 1.54887367        0.0   385.3853    1.37759   1.745056   8.556737   10.83921    .160995
                         360.    .052813    .026133    .203454    .299073   1.390568    .009897    .008654   1283.863   25.67725
                          1.0        1.0        0.0        0.0        0.0
  11000      .011  526.935171 -1426.8655 899.930295 526.935171 -1426.8655 899.930295 -407682.58 89128.4425 318554.137        0.0
                          0.0        0.0 556.407127 -1529.9219 973.514799 -407680.56  89123.572 318556.985 2086.32905 -2503.4367
                   417.107673 1953.80064 -2326.7958 372.995124 -496811.02 -229425.69 726236.717 -.37140368 -.02787058 .399274258
                   -2.0754664 .290897694 1.78456881        0.0   385.3853    1.37759   1.745056   8.556737   10.83921    .160995
                         360.    .052813    .026133    .203454    .299073   1.390568    .009897    .008654   1283.863   25.67725
                          1.0        1.0        0.0        0.0        0.0
  11500     .0115  730.598055 -1442.9864 712.388309 730.598055 -1442.9864 712.388309 -381942.18 22439.2539 359502.928        0.0
                          0.0        0.0 775.661897 -1548.7585 773.096644 -381939.48 22434.3679 359505.117 2324.42044 -2321.8552
                   -2.5652526 2173.58442 -2155.3747 -18.209745 -404381.44 -337063.67 741445.111 -.32825269 -.09713305 .425385736
                   -1.9150093 -.06131257 1.97632188        0.0   385.3853    1.37759   1.745056   8.556737   10.83921    .160995
                         360.    .052813    .026133    .203454    .299073   1.390568    .009897    .008654   1283.863   25.67725
                          1.0        1.0        0.0        0.0        0.0
  12000      .012  916.271092 -1423.5761 507.304976 916.271092 -1423.5761 507.304976 -346797.09 -44802.467 391599.561        0.0
                          0.0        0.0 975.816366 -1529.4591 553.642746  -346793.8 -44807.245  391601.04 2505.27548 -2083.1019
                   -422.17362 2339.84716  -1930.881 -408.96612 -301994.63 -436402.03 738396.656 -.27701889 -.16400384 .441022739
                   -1.7073983  -.4120128 2.11941126        0.0   385.3853    1.37759   1.745056   8.556737   10.83921    .160995
                         360.    .052813    .026133    .203454    .299073   1.390568    .009897    .008654   1283.863   25.67725
                          1.0        1.0        0.0        0.0        0.0
  12500     .0125  1079.38345 -1369.1131  289.72968 1079.38345 -1369.1131  289.72968 -303112.72   -110941. 414053.717        0.0
                          0.0        0.0 1151.94292 -1472.4993 320.556355 -303108.89 -110945.55 414054.446  2624.4422 -1793.0556
                   -831.38657 2448.49659 -1658.8428 -789.65377 -192171.72 -524994.72 717166.435 -.21896392 -.22683635  .44580027
                   -1.4577457 -.75256816 2.21031375        0.0   385.3853    1.37759   1.745056   8.556737   10.83921    .160995
                         360.    .052813    .026133    .203454    .299073   1.390568    .009897    .008654   1283.863   25.67725
                          1.0        1.0        0.0        0.0        0.0
  13000      .013  1215.91623 -1280.9373 65.0210609 1215.91623 -1280.9373 65.0210609  -251964.7 -174347.79 426312.496        0.0
                          0.0        0.0 1299.70478 -1379.2816 79.5768181 -251960.44 -174352.02 426312.457 2678.98639 -1458.8584
                    -1220.128 2496.85351 -1345.9583 -1150.8952 -77616.907 -600660.29 678277.197 -.15551709 -.28408351 .439600603
                   -1.1721983 -1.0745927 2.24679098        0.0   385.3853    1.37759   1.745056   8.556737   10.83921    .160995
                         360.    .052813    .026133    .203454    .299073   1.390568    .009897    .008654   1283.863   25.67725
                          1.0        1.0        0.0        0.0        0.0
  13500     .0135  1322.50995 -1161.2209 -161.28902 1322.50995 -1161.2209 -161.28902 -194612.47 -233461.57 428074.043        0.0
                          0.0        0.0 1415.46385 -1252.1016  -163.3623 -194607.89 -233465.35  428073.24  2667.5654 -1088.7392
                   -1578.8262 2483.73087 -999.93191  -1483.799 38849.1015 -661535.62 622686.514 -.08824126 -.33433542 .422576679
                   -.85778757 -1.3701571 2.22794477        0.0   385.3853    1.37759   1.745056   8.556737   10.83921    .160995
                         360.    .052813    .026133    .203454    .299073   1.390568    .009897    .008654   1283.863   25.67725
                          1.0        1.0        0.0        0.0        0.0
  14000      .014  1396.53888 -1012.9113 -383.62753 1396.53888 -1012.9113 -383.62753 -132468.24 -286826.75 419294.989        0.0
                          0.0        0.0 1496.36902 -1094.0904 -402.27864 -132463.44   -286830.  419293.44  2590.4594 -691.81174
                   -1898.6477 2409.45023 -629.28381 -1780.1664 154358.511 -706121.74 551763.227 -.01879238 -.37635501 .395147388
                    -.5222554 -1.6319839 2.15423914        0.0   385.3853    1.37759   1.745056   8.556737   10.83921    .160995
                         360.    .052813    .026133    .203454    .299073   1.390568    .009897    .008654   1283.863   25.67725
                          1.0        1.0        0.0        0.0        0.0
  14500     .0145  1436.18084 -839.66073 -596.52011 1436.18084 -839.66073 -596.52011 -67062.202  -333129.3 400191.501        0.0
                          0.0        0.0 1540.42912 -909.13932 -631.28979 -67057.308 -333131.94 400189.244 2449.56844 -277.84953
                   -2171.7189 2275.84158 -243.14062  -2032.701 266067.097  -733320.8 467253.703 .051117526 -.40910664  .35798911
                   -.17386338 -1.8536256 2.02748897        0.0   385.3853    1.37759   1.745056   8.556737   10.83921    .160995
                         360.    .052813    .026133    .203454    .299073   1.390568    .009897    .008654   1283.863   25.67725
                          1.0        1.0        0.0        0.0        0.0
  % % % % % %   Suspended simulation;  plot data space exhausted;  SPY SPACE is required.   LIMBUF =  840000.
  % % % % % %   Suspended simulation;  plot data space exhausted;  SPY SPACE is required.   LIMBUF =  840000.
  +++  Time-sharing disabled.   Send  user-keyed interrupt to silence alarm.
   Current values.  INDBUF  INDBEG  LIMBUF  MFLUSH  NUMDCD  KCARD1  KCARD2
                    839994      50  840000    1000     230       1     231
Plot timespan now in memory (in sec) = 0.00000000E+00   1.49990000E-02
   ++++  Begin plot-data copy from memory to disk.   MFLUSH, INDBUF, N4, Tbeg,  Tend = 1001  839994       1  -1.00000E+00
1.00000E+19
  15000      .015  1440.45863  -645.7346 -794.72403 1440.45863  -645.7346 -794.72403 -4.8582047 -371229.11 371233.965        0.0
                          0.0        0.0 1546.55847  -701.8021 -844.75637 -.61533E-6 -371231.06  371231.06 2248.36057 142.954277
                   -2391.3148 2086.19323 148.989429 -2235.1827 371224.248 -742463.07 371238.823 .119771634 -.43178614 .312014506
                   .178809711  -2.029625 1.85081542        0.0   385.3853    1.37759   1.745056   8.556737   10.83921    .160995
                         360.    .052813    .026133    .203454    .299073   1.390568    .009897    .008654   1283.863   25.67725
                          1.0        1.0        0.0        0.0        0.0
  15500     .0155  1409.26779 -435.90846 -973.35934 1409.26779 -435.90846 -973.35934 67052.5902 -400188.01 333135.423        0.0
                          0.0        0.0 1514.60785 -477.18486  -1037.423 67057.3081 -400189.24 333131.936 1991.79272 560.238123
                   -2552.0308 1845.17625  537.45088 -2382.6271 467240.603 -733323.44 266082.833 .185475895  -.4438333 .258357409
                   .527079758 -2.1556483 1.62856846        0.0   385.3853    1.37759   1.745056   8.556737   10.83921    .160995
                         360.    .052813    .026133    .203454    .299073   1.390568    .009897    .008654   1283.863   25.67725
                          1.0        1.0        0.0        0.0        0.0
  16000      .016  1343.37612  -215.3488 -1128.0273 1343.37612  -215.3488 -1128.0273 132458.988 -419292.97 286833.979        0.0
                          0.0        0.0 1445.35943 -240.81623 -1204.5432 132463.443 -419293.44 286829.997 1686.17566 963.726972
                   -2649.9026 1558.72491 912.678527 -2471.4034 551751.954 -706126.94 154374.991  .24661221 -.44495136 .198339151
                   .862371442 -2.2285924 1.36622098        0.0   385.3853    1.37759   1.745056   8.556737   10.83921    .160995
                         360.    .052813    .026133    .203454    .299073   1.390568    .009897    .008654   1283.863   25.67725
                          1.0        1.0        0.0        0.0        0.0
  16500     .0165  1244.40612 10.5134411 -1254.9196 1244.40612 10.5134411 -1254.9196 194603.803 -428073.53 233469.731        0.0
                          0.0        0.0 1340.52359 1.48104334 -1342.0046 194607.888 -428073.24 233465.353 1339.04255 1343.48568
                   -2682.5282 1233.89268   1265.433 -2499.3257 622677.337 -661543.26 38865.9275 .301676405 -.43511339  .13343698
                   1.17642881 -2.2466612  1.0702324        0.0   385.3853    1.37759   1.745056   8.556737   10.83921    .160995
                         360.    .052813    .026133    .203454    .299073   1.390568    .009897    .008654   1283.863   25.67725
                          1.0        1.0        0.0        0.0        0.0
  17000      .017    1114.794 236.117172 -1350.9112   1114.794 236.117172 -1350.9112 251956.829 -426313.51 174356.682        0.0
                          0.0        0.0 1202.67939 243.741964 -1446.4214 251960.441 -426312.46 174352.016 958.937429 1690.16332
                   -2649.1008 878.676828 1587.02834 -2465.7052 678270.341 -600670.19 -77600.147 .349312076 -.41456135 .065249272
                   1.46151844 -2.2094096 .747891262        0.0   385.3853    1.37759   1.745056   8.556737   10.83921    .160995
                         360.    .052813    .026133    .203454    .299073   1.390568    .009897    .008654   1283.863   25.67725
                          1.0        1.0        0.0        0.0        0.0
  17500     .0175  957.733621 455.906054 -1413.6397 957.733621 455.906054 -1413.6397 303105.841 -414056.24 110950.394        0.0
                          0.0        0.0 1035.22116 480.001192 -1515.2224 303108.891 -414054.45 110945.554  555.21997 1995.22355
                   -2550.4435 501.827567 1869.54573 -2371.3733 717162.076 -525006.63 -192155.45 .388347028 -.38380169 -.00454534
                   1.71062067 -2.1177551 .407134458        0.0   385.3853    1.37759   1.745056   8.556737   10.83921    .160995
                         360.    .052813    .026133    .203454    .299073   1.390568    .009897    .008654   1283.863   25.67725
                          1.0        1.0        0.0        0.0        0.0
  18000      .018  777.089427  664.46964 -1441.5591 777.089427  664.46964 -1441.5591  346791.38 -391603.52 44812.1394        0.0
                          0.0        0.0 842.272239 704.441271 -1546.7135 346793.795 -391601.04 44807.2448 137.830968 2251.15478
                   -2388.9857 112.619787 2106.02871 -2218.6485 738394.899 -436415.66 -301979.24 .417819521 -.34359152   -.074228
                    1.9176018 -1.9739545 .056352699        0.0   385.3853    1.37759   1.745056   8.556737   10.83921    .160995
                         360.    .052813    .026133    .203454    .299073   1.390568    .009897    .008654   1283.863   25.67725
                          1.0        1.0        0.0        0.0        0.0
  18500     .0185  577.310996 856.671644 -1433.9826 577.310996 856.671644 -1433.9826 381937.765 -359508.23 -22429.539        0.0
                          0.0        0.0 628.584144 911.535449 -1540.1196 381939.485 -359505.12 -22434.368  -282.9513 2451.65504
                   -2168.7037 -279.36065 2290.65428 -2011.2936 741445.991 -337078.69  -404367.3  .43700339 -.29492073 -.14208266
                   2.07736512 -1.7815485 -.29581665        0.0   385.3853    1.37759   1.745056   8.556737   10.83921    .160995
                         360.    .052813    .026133    .203454    .299073   1.390568    .009897    .008654   1283.863   25.67725
                          1.0        1.0        0.0        0.0        0.0
  19000      .019  363.315801 1027.78031 -1391.0961 363.315801 1027.78031 -1391.0961 407679.577 -318560.65 -89118.929        0.0
                          0.0        0.0 399.417486 1096.18498 -1495.6025 407680.557 -318556.98 -89123.572 -696.76749 2591.78744
                   -1895.0199  -664.4645 2418.87641 -1754.4119 726240.225 -229441.72 -496798.51 .445426037 -.23898764  -.2064384
                   2.18597689 -1.5452748 -.64070198        0.0   385.3853    1.37759   1.745056   8.556737   10.83921    .160995
                         360.    .052813    .026133    .203454    .299073   1.390568    .009897    .008654   1283.863   25.67725
                          1.0        1.0        0.0        0.0        0.0
  19500     .0195  140.377384 1173.58014 -1313.9575 140.377384 1173.58014 -1313.9575 423382.956 -269769.04 -153613.91        0.0
                          0.0        0.0  160.41653 1253.84246  -1414.259  423383.18 -269764.92 -153618.26 -1093.4259 2668.10144
                   -1574.6755 -1033.2028 2487.53766 -1454.3349 693152.001 -116155.13 -576996.87 .442882429 -.17717069 -.26571174
                   2.24076263 -1.2709515 -.96981117        0.0   385.3853    1.37759   1.745056   8.556737   10.83921    .160995
                         360.    .052813    .026133    .203454    .299073   1.390568    .009897    .008654   1283.863   25.67725
                          1.0        1.0        0.0        0.0        0.0
  20000       .02  -86.019017 1290.48326 -1204.4642 -86.019017 1290.48326 -1204.4642 428661.255 -214334.84 -214326.42        0.0
                          0.0        0.0 -82.534728 1380.62633 -1298.0916 428660.705 -214330.35 -214330.35 -1463.1611 2678.71794
                   -1215.5569 -1376.5023 2494.94751 -1118.4452 642996.095 -8.4242234 -642987.67 .429433104 -.11099096 -.31844214
                   2.24037334 -.96533292 -1.2750405        0.0   385.3853    1.37759   1.745056   8.556737   10.83921    .160995
                         360.    .052813    .026133    .203454    .299073   1.390568    .009897    .008654   1283.863   25.67725
                          1.0        1.0        0.0        0.0        0.0
  20500     .0205  -310.29735 1375.61042 -1065.3131 -310.29735 1375.61042 -1065.3131 423384.484   -153623. -269761.49        0.0
                          0.0        0.0  -323.4525 1473.41401 -1149.9615  423383.18 -153618.26 -269764.92 -1796.8665 2623.37552
                     -826.509 -1685.9078 2440.92348 -755.01572 577007.479 116138.493 -693145.97 .405410029 -.04207843  -.3633316
                   2.18481866 -.63594474 -1.5488738        0.0   385.3853    1.37759   1.745056   8.556737   10.83921    .160995
                         360.    .052813    .026133    .203454    .299073   1.390568    .009897    .008654   1283.863   25.67725
                          1.0        1.0        0.0        0.0        0.0
  21000      .021  -526.93526 1426.86555 -899.93028 -526.93526 1426.86555 -899.93028 407682.582 -89128.444 -318554.14        0.0
                          0.0        0.0 -556.40818 1529.92251 -973.51433 407680.557 -89123.572 -318556.98 -2086.3307 2503.43684
                   -417.10615 -1953.8008 2326.79583 -372.99502 496811.026 229425.695 -726236.72 .371403894 .027870473 -.39927437
                   2.07546643 -.29089761 -1.7845688        0.0   385.3853    1.37759   1.745056   8.556737   10.83921    .160995
[...]
                         360.    .052813    .026133    .203454    .299073   1.390568    .009897    .008654   1283.863   25.67725
                          1.0        1.0        0.0        0.0        0.0
 113000      .113  -251732.91 -173369.98 425102.882 -251732.91 -173369.98 425102.882 -251732.91 -173369.98 425102.882        0.0
                          0.0        0.0 -299009.22 -161635.28 460644.496 -251960.44 -174352.02 426312.457 -137373.95 -622279.77
                   759653.718 -78362.929 -598472.86 676835.788 -78362.929 -598472.86 676835.787 201.367138 -72.858221 -128.50892
                   -375.26726 533.733167 -158.46591        0.0   385.3853    1.37759   1.745056   8.556737   10.83921    .160995
                         360.    .052813    .026133    .203454    .299073   1.390568    .009897    .008654   1283.863   25.67725
                          1.0        1.0        0.0        0.0        0.0
 113500     .1135  -193295.69  -224737.1 418032.796 -193295.69  -224737.1 418032.796 -193295.69  -224737.1 418032.796        0.0
                          0.0        0.0 -179515.68 -260442.16 439957.844 -194607.89 -233465.35  428073.24 80926.4787 -700400.01
                   619473.527 31441.4109  -642769.9 611328.488 31441.4116  -642769.9 611328.488 209.956528 -111.03984 -98.916686
                   -428.97537 482.811062  -53.83569        0.0   385.3853    1.37759   1.745056   8.556737   10.83921    .160995
                         360.    .052813    .026133    .203454    .299073   1.390568    .009897    .008654   1283.863   25.67725
                          1.0        1.0        0.0        0.0        0.0
 114000      .114  -116876.92 -296558.18 413435.103 -116876.92 -296558.18 413435.103 -116876.92 -296558.18 413435.103        0.0
                          0.0        0.0  -77647.29 -362576.25 440223.537 -132463.44   -286830.  419293.44 284928.956 -802799.78
                   517870.827 179681.256 -709993.28 530312.027 179681.257 -709993.28 530312.027 184.616076 -107.40173  -77.21434
                    -467.3386 417.604487  49.734146        0.0   385.3853    1.37759   1.745056   8.556737   10.83921    .160995
                         360.    .052813    .026133    .203454    .299073   1.390568    .009897    .008654   1283.863   25.67725
                          1.0        1.0        0.0        0.0        0.0
 114500     .1145  -49393.641 -338216.27 387609.916 -49393.641 -338216.27 387609.916 -49393.641 -338216.27 387609.916        0.0
                          0.0        0.0 -46033.873 -377503.25 423537.125 -67057.308 -333131.94 400189.244 331469.378 -801040.38
                   469570.998 288822.633 -725826.19 437003.558 288822.633 -725826.19 437003.557   4.000182 47.3190066 -51.319188
                   -487.29107 337.811806 149.479239        0.0   385.3853    1.37759   1.745056   8.556737   10.83921    .160995
                         360.    .052813    .026133    .203454    .299073   1.390568    .009897    .008654   1283.863   25.67725
                          1.0        1.0        0.0        0.0        0.0
 115000      .115  16381.5012 -391260.15 374878.651 16381.5012 -391260.15 374878.651 16381.5011 -391260.15 374878.651        0.0
                          0.0        0.0 80971.6584 -469056.22 388084.558 .127058E-4 -371231.06  371231.06 550027.875 -857140.77
                     307112.9 407641.653  -766138.8  358497.15 407641.653  -766138.8  358497.15 -54.449938 77.7993815 -23.349443
                   -492.96909 249.992734 242.976349        0.0   385.3853    1.37759   1.745056   8.556737   10.83921    .160995
                         360.    .052813    .026133    .203454    .299073   1.390568    .009897    .008654   1283.863   25.67725
                          1.0        1.0        0.0        0.0        0.0
 115500     .1155  62505.0954 -396609.25 334104.158 62505.0954 -396609.25 334104.158 62505.0952 -396609.25 334104.158        0.0
                          0.0        0.0 102931.412 -456797.08 353865.666 67057.3081 -400189.24 333131.936  559728.49 -810662.74
                   250934.254 459114.349 -730713.41 271599.062 459114.348 -730713.41 271599.063 -108.16641 87.5697422 20.5966633
                    -482.2568 154.566549 327.690236        0.0   385.3853    1.37759   1.745056   8.556737   10.83921    .160995
                         360.    .052813    .026133    .203454    .299073   1.390568    .009897    .008654   1283.863   25.67725
                          1.0        1.0        0.0        0.0        0.0
 116000      .116   135243.71  -421565.1 286321.386  135243.71  -421565.1 286321.386  135243.71  -421565.1 286321.386        0.0
                          0.0        0.0 120554.022 -425648.18  305094.16 132463.443 -419293.44 286829.997 546202.204 -730742.34
                   184540.138 556808.807 -707886.48 151077.676 556808.807 -707886.48 151077.676 -79.806812 58.1729729  21.633839
                   -456.76331 54.2396196 402.523723        0.0   385.3853    1.37759   1.745056   8.556737   10.83921    .160995
                         360.    .052813    .026133    .203454    .299073   1.390568    .009897    .008654   1283.863   25.67725
                          1.0        1.0        0.0        0.0        0.0
 116500     .1165  179232.636 -415123.58 235890.945 179232.636 -415123.58 235890.945 179232.636 -415123.58 235890.945        0.0
                          0.0        0.0  140686.15 -398136.64 257450.489 194607.888 -428073.24 233465.353 538822.789 -655587.13
                   116764.339 594356.216 -651014.53 56658.3089 594356.216 -651014.53 56658.3092  -95.47486 57.7635724 37.7112871
                   -414.97022 -49.689121 464.659345        0.0   385.3853    1.37759   1.745056   8.556737   10.83921    .160995
                         360.    .052813    .026133    .203454    .299073   1.390568    .009897    .008654   1283.863   25.67725
                          1.0        1.0        0.0        0.0        0.0
 117000      .117  243767.798 -407877.25 164109.454 243767.798 -407877.25 164109.454 243767.798 -407877.25 164109.454        0.0
                          0.0        0.0 243166.057 -429401.95  186235.89 251960.441 -426312.46 174352.016 672568.005 -615637.84
                   -56930.167  651645.05 -571986.71 -79658.343  651645.05 -571986.71 -79658.343 89.8183931 -117.70589  27.887499
                   -362.11687 -151.15269 513.269592        0.0   385.3853    1.37759   1.745056   8.556737   10.83921    .160995
                         360.    .052813    .026133    .203454    .299073   1.390568    .009897    .008654   1283.863   25.67725
                          1.0        1.0        0.0        0.0        0.0
 117500     .1175  286219.201 -399092.45 112873.253 286219.201 -399092.45 112873.253 286219.202 -399092.45 112873.253        0.0
                          0.0        0.0 243615.834 -376866.09  133250.26 303108.891 -414054.45 110945.554 620481.928 -510116.35
                   -110365.57 685311.656 -511965.71 -173345.95 685311.656 -511965.71 -173345.95 165.644232 -197.88563 32.2414013
                   -294.36723 -252.12853 546.495759        0.0   385.3853    1.37759   1.745056   8.556737   10.83921    .160995
                         360.    .052813    .026133    .203454    .299073   1.390568    .009897    .008654   1283.863   25.67725
                          1.0        1.0        0.0        0.0        0.0
 118000      .118  349330.763 -396176.52 46845.7541 349330.763 -396176.52 46845.7541 349330.764 -396176.52 46845.7541        0.0
                          0.0        0.0  320642.78 -388338.39 67695.6147 346793.795 -391601.04 44807.2447 708981.175 -456034.01
                   -252947.17 745507.281 -443022.27 -302485.01 745507.282 -443022.27 -302485.01 267.435457 -269.55122 2.11575975
                   -215.70579 -348.63982 564.345664        0.0   385.3853    1.37759   1.745056   8.556737   10.83921    .160995
                         360.    .052813    .026133    .203454    .299073   1.390568    .009897    .008654   1283.863   25.67725
                          1.0        1.0        0.0        0.0        0.0
 118500     .1185   376260.73 -354244.53 -22016.201  376260.73 -354244.53 -22016.201  376260.73 -354244.53 -22016.201        0.0
                          0.0        0.0  417021.53  -401846.3  -15175.23 381939.485 -359505.12 -22434.368  818867.83 -386671.07
                   -432196.76 730505.258 -332228.33 -398276.93 730505.259 -332228.33 -398276.93 236.592823 -244.58655  7.9937313
                   -125.40195 -439.80348 565.205488        0.0   385.3853    1.37759   1.745056   8.556737   10.83921    .160995
                         360.    .052813    .026133    .203454    .299073   1.390568    .009897    .008654   1283.863   25.67725
                          1.0        1.0        0.0        0.0        0.0
 119000      .119  417261.866 -326817.97   -90443.9 417261.866 -326817.97   -90443.9 417261.867 -326817.97   -90443.9        0.0
                          0.0        0.0 489318.758 -394768.95 -94549.806 407680.557 -318556.98 -89123.572  884087.71 -300219.15
                   -583868.56 744079.832 -236374.07 -507705.77 744079.833 -236374.07 -507705.77 310.976401 -309.21402 -1.7623864
                   -29.735418 -520.20145 549.936887        0.0   385.3853    1.37759   1.745056   8.556737   10.83921    .160995
                         360.    .052813    .026133    .203454    .299073   1.390568    .009897    .008654   1283.863   25.67725
                          1.0        1.0        0.0        0.0        0.0
 119500     .1195  437970.069 -282276.89 -155693.18 437970.069 -282276.89 -155693.18 437970.069 -282276.89 -155693.18        0.0
                          0.0        0.0 480849.633 -317216.95 -163632.68  423383.18 -269764.92 -153618.26 798066.584 -153584.27
                   -644482.32  720246.96 -126583.71 -593663.25  720246.96 -126583.71 -593663.25 186.877853 -178.18994 -8.6879169
                   74.0694574 -592.67969  518.61023        0.0   385.3853    1.37759   1.745056   8.556737   10.83921    .160995
                         360.    .052813    .026133    .203454    .299073   1.390568    .009897    .008654   1283.863   25.67725
                          1.0        1.0        0.0        0.0        0.0
  % % % % % %   Suspended simulation;  plot data space exhausted;  SPY SPACE is required.   LIMBUF =  840000.
  % % % % % %   Suspended simulation;  plot data space exhausted;  SPY SPACE is required.   LIMBUF =  840000.
  +++  Time-sharing disabled.   Send  user-keyed interrupt to silence alarm.
   Current values.  INDBUF  INDBEG  LIMBUF  MFLUSH  NUMDCD  KCARD1  KCARD2
                    839994      50  840000    1007     230       1     231
Plot timespan now in memory (in sec) = 1.04985997E-01   1.19985000E-01
   ++++  Begin plot-data copy from memory to disk.   MFLUSH, INDBUF, N4, Tbeg,  Tend = 1008  839994       1  -1.00000E+00
1.00000E+19
 120000       .12  435517.798  -216713.9  -218803.9 435517.798  -216713.9  -218803.9 435517.798  -216713.9  -218803.9        0.0
                          0.0        0.0 526492.088 -288690.03 -237802.06 428660.705 -214330.35 -214330.35 815182.116 -50887.967
                   -764294.15 652231.699 2089.99446 -654321.69   652231.7  2089.9942 -654321.69 130.044646 -131.52029 1.47563835
                    179.03495 -650.79816 471.763243        0.0   385.3853    1.37759   1.745056   8.556737   10.83921    .160995
                         360.    .052813    .026133    .203454    .299073   1.390568    .009897    .008654   1283.863   25.67725
                          1.0        1.0        0.0        0.0        0.0

Extrema of output variables follow.   Order and column positioning are the same as for the preceding time-step loop output.
Variable maxima :  453203.769 449647.612 446414.105 453203.769 449647.612 446414.105 453203.769 449647.612 496665.181        0.0
                          0.0        0.0 558373.901 577394.812 477398.409 428660.705 428660.703 428660.703 993704.453 892274.131
                     946247.9 808386.011 797048.761 790927.938 808386.012 797048.762 790927.937 700.709265 348.396317  670.77501
                   913.732392 592.985999 566.845814        0.0   385.3853    1.37759   1.745056   8.556737   10.83921    .160995
                         360.    .052813    .026133    .203454    .299073   1.390568    .009897    .008654   1283.863   25.67725
                          1.0        1.0        0.0        0.0        0.0
Times of maxima :     .080195     .08608    .093225    .080195     .08608    .093225    .080195     .08608     .05523        0.0
                          0.0        0.0    .079146    .066414    .073051        0.0    .006667    .113333    .079098    .065905
                      .071485     .07819    .064731    .071875     .07819    .064731    .071875    .062338    .070199    .053996
                      .064832    .111659    .118319        0.0        0.0        0.0        0.0        0.0        0.0        0.0
                          0.0        0.0        0.0        0.0        0.0        0.0        0.0        0.0        0.0        0.0
                          0.0        0.0        0.0        0.0        0.0
Variable minima :  -471735.74 -438150.65  -450516.3 -471735.74 -438150.65  -450516.3 -471735.74 -443909.44  -450516.3        0.0
                          0.0        0.0 -563640.85 -513919.54 -518838.85 -428660.71  -428660.7  -428660.7 -920516.98 -873586.93
                   -915664.87 -783389.39 -767512.19 -783976.93 -783389.38 -928227.39 -783976.93 -376.38801 -619.41458 -351.20581
                   -493.29133 -761.55745 -806.53969        0.0   385.3853    1.37759   1.745056   8.556737   10.83921    .160995
                         360.    .052813    .026133    .203454    .299073   1.390568    .009897    .008654   1283.863   25.67725
                          1.0        1.0        0.0        0.0        0.0
Times of minima :     .070435    .077355    .083725    .070435    .077355    .083725    .070435    .057578    .083725        0.0
                          0.0        0.0    .070699    .077759    .063558        .01    .016667    .103333    .107487    .094588
                      .061957    .067569    .114985    .062783    .067569    .055232    .062783    .053022    .055179     .06729
                      .114861    .061601    .068287        0.0        0.0        0.0        0.0        0.0        0.0        0.0
                          0.0        0.0        0.0        0.0        0.0        0.0        0.0        0.0        0.0        0.0
                          0.0        0.0        0.0        0.0        0.0

Blank card terminating all plot cards.            |BLANK PLOT

Memory storage figures for the preceding, now-completed data case.  -------------------------------  Present   Program
A value of  "-9999"  indicates that no figure is available.         28-Feb-22  19:18:10              figure     limit  (name)
     Size List 1.   Number of electric network nodes.                                                   37      6000  (LBUS)
     Size List 2.   Number of electric network branches.                                                39     10000  (LBRNCH)
     Size List 3.   Number of data values in R, L, C tables.                                            45    192000  (LDATA)
     Size List 4.   Number of electric network sources.                                                  3       900  (LEXCT)
     Size List 5.   Storage for [Y] and triangularized [Y].   No. times =    3     Factors =    66     189    420000  (LYMAT)
     Size List 6.   Number of entries in switch table.                  No. flops = 18                  21      1200  (LSWTCH)
     Size List 7.   Number of distinct ALPHANUMERIC data names plus program SPY variables.              25     15000  (LSIZE7)
     Size List 8.   History points of distributed lines.                                              4756    120000  (LPAST)
     Size List 9.   Number of nonlinear elements.                                                        0      2250  (LNONL)
     Size List 10.  Points of nonlinear characteristics.                                                 0      3800  (LCHAR)
     Size List 11.  Number of Type-59 S.M. outputs.                                                      0       720  (LSMOUT)
     Size List 12.  Total number of EMTP output variables.                                              55      2000  (LSIZ12)
     Size List 13.  Working space for batch/SPY plotting.                                            -9999     72800  (LSIZ13)
     Size List 14.  S.M./U.M. connections to TACS.                                                   -9999       510  (LBSTAC)
     Size List 15.  Character storage in bytes for MODELS.                                            3297     90000  (LCTACS)
     Size List 16.  Total number of Type-59 S.M. masses.                                                 0       800  (LIMASS)
     Size List 17.  Number of Type-59 Synchronous machines.                                              0        90  (LSYN)
     Size List 18.  Branch and switch power/energy outputs.                                              0       254  (MAXPE)
     Size List 19.  Total floating-point TACS table space.                                              23    120000  (LTACST)
     Size List 20.  Non-copied recursive convolution data.                                               0    100000  (LFSEM)
     Size List 21.  Total modal/phase [T] matrix storage.                                                9      3000  (LFD)
     Size List 22.  Total recursive convolution history.                                                 0     15000  (LHIST)
     Size List 23.  Giant vectors for renumbering, phasors;  also extrema accumulation.                  93    192000  (LSIZ23)
     Size List 24.  Peak phases of compensation for data.                                                0       120  (LCOMP)
     Size List 25.  Total table space for all U.M usage.                                             -9999     45000  (LSPCUM)
     Size List 26.  Square of max number of coupled phases.                                              9    260000  (LSIZ26)
     Size List 27.  Maximum number of MODELS top variables.                                             44       600  (LSIZ27)
     Size List 28.  MODELS.  Total work space is divided into INTEGER and REAL.  1st, REAL:           1780    210000  (LRTACS)
                             Second  and last,  statistics for INTEGER work space.                    6838         0  (LITACS)
     Size List 29.  RAM disk used by "TAPSAV" table saving (limit is "LABCOM" size LTLABL).          -9999       600  (LSIZ29)
     Size List 30.  Taku Noda frequency-dependent circuits.                                              0        19  (LSIZ30)
Timing figures characterizing central processor (CP) solution speed.  ----------------------------   CP sec  Wait sec  Real sec
     Data input time (through blank card ending branches) ....                                       0.031     0.000     0.031
     Node renumbering and phasor solution  ....                                                      0.047     0.000     0.047
     After phasor solution, but before time-step loop  ....                                          0.000     0.000     0.000
     Integration of equations (time-step loop)  ....                                                 1.172     0.000     1.172
     Plotting or STATISTICS termination overlays ....                                                0.016     0.000     0.016
                                                                                                    ---------------------------
                                                                                          Totals      1.266     0.000     1.266

