   ---   236   cards of disk file read into card cache cells  1   onward.
 Comment card is ignored.      |C   LBUS  LBRNCH   LDATA   LEXCT   LYMAT  LSWTCH
 Limit CIDEAL cards =   200    |CARDS        200 { Limit of CIDEAL will be 2 mor
 1st card (Lists  1-10).       |    6000   10000  192000     900  420000    120
 Comment card is ignored.      |C LSMOUT  LSIZ12  LSIZ13  LBSTAC  LCTACS  LIMASS
 2nd card (Lists 11-20).       |     720    2000   72800     510   90000     80
 Comment card is ignored.      |C    LFD   LHIST  LSIZ23   NCOMP  LSPCUM  LSIZ26
 3rd card (Lists 21-30).       |    3000   15000  192000     120   45000  26000
 4th card (Lists 31-32).       |     200     300     { Optional card for Lists
 Comment card is ignored.      |C  LWORK  LMARTI
 Supplemental offsets.         |  840000     742
 <===> Done with  "/"-card sorting by data class.    Remember that the source file appears different from interpreted input data.
Alternative Transients Program (ATP),  GNU Linux or DOS.  All rights reserved by Can/Am user group of Portland, Oregon, USA.
 Date (dd-mth-yy) and time of day (hh.mm.ss) = 28-Feb-22  19:06:24   Name of disk plot file is  pdraw6.3\bernal\energizacion136.pl4
Consult the 860-page ATP Rule Book of the Can/Am EMTP User Group in Portland,  Oregon, USA.  Source code date is 12 August 2008.
Total size of LABCOM tables = 10913436 INTEGER words.  31 VARDIM  List Sizes follow:  6002  10K  192K  900  420K  1200  15K
  120K  2250  3800  720  2K  72800  510  90K  800  90  254  120K  100K  3K  15K  192K  120  45K  260K  600  210K  1100  60  200
--------------------------------------------------+--------------------------------------------------------------------------------
Descriptive interpretation of input data cards.   |  Input data card images are shown below, all 80 columns, character by character
                                                  0         1         2         3         4         5         6         7         8
                                                  012345678901234567890123456789012345678901234567890123456789012345678901234567890
--------------------------------------------------+--------------------------------------------------------------------------------
Comment card.   NUMDCD = 1.                       |C data:C:\ATP\ATPDRAW6.3\BERNAL\ENERGIZACION136.ATP
Marker card preceding new EMTP data case.         |BEGIN NEW DATA CASE
Comment card.   NUMDCD = 3.                       |C --------------------------------------------------------
Comment card.   NUMDCD = 4.                       |C Generated by ATPDRAW  febrero, lunes 28, 2022
Comment card.   NUMDCD = 5.                       |C A Bonneville Power Administration program
Comment card.   NUMDCD = 6.                       |C by H. K. Høidalen at SEfAS/NTNU - NORWAY 1994-2016
Comment card.   NUMDCD = 7.                       |C --------------------------------------------------------
Comment card.   NUMDCD = 8.                       |C  dT  >< Tmax >< Xopt >< Copt ><Epsiln>
Misc. data.     1.000E-06   1.200E-01   5.000E+01 |   1.E-6     .12     50.
Misc. data.    500    1  0  1  1  0  0  0  0  0   |     500       1       0       1       1       0       0       0       0
  ///  Warning.  Nonzero XOPT or COPT differs from the power frequency of  6.00000000E+01  Hz.   Did the user really want this?
No TACS data,  but MODELS data begins (next).     |MODELS
      Another ordinary MODELS data card.          |OUTPUT
      Another ordinary MODELS data card.          |  AnVol
      Another ordinary MODELS data card.          |  LONG
      Another ordinary MODELS data card.          |  R0F
      Another ordinary MODELS data card.          |  R1F
      Another ordinary MODELS data card.          |  X0F
      Another ordinary MODELS data card.          |  X1F
      Another ordinary MODELS data card.          |  RDIVX
      Another ordinary MODELS data card.          |  RINSER
      Another ordinary MODELS data card.          |  CLOSE1
      Another ordinary MODELS data card.          |  RPpos
      Another ordinary MODELS data card.          |  RPcero
      Another ordinary MODELS data card.          |  LPpos
      Another ordinary MODELS data card.          |  LPcero
      Another ordinary MODELS data card.          |  CPpos
      Another ordinary MODELS data card.          |  CPcero
      Another ordinary MODELS data card.          |  Xp
      Another ordinary MODELS data card.          |  CR
      Another ordinary MODELS data card.          |  SIMET
      Another ordinary MODELS data card.          |  ENC1
      Another ordinary MODELS data card.          |  ENC2
      Another ordinary MODELS data card.          |  ENC1AS
      Another ordinary MODELS data card.          |  ENC2AS
      Another ordinary MODELS data card.          |MODEL DEFAULT
      Another ordinary MODELS data card.          |DATA AnVol,LONG,R0F,R1F,X0F,X1F,RDIVX,RINSER,CLOSE1,RPpos,RPcero,LPpos,LPcero
      Another ordinary MODELS data card.          |OUTPUT o1,o2,o3, o4, o5, o6, o7, o8, o9, o10, o11, o12, o13
      Another ordinary MODELS data card.          |VAR o1,o2,o3, o4, o5, o6, o7, o8, o9, o10, o11, o12, o13
      Another ordinary MODELS data card.          |INIT
      Another ordinary MODELS data card.          |  o1:=AnVol
      Another ordinary MODELS data card.          |  o2:=LONG
      Another ordinary MODELS data card.          |  o3:=R0F
      Another ordinary MODELS data card.          |  o4:=R1F
      Another ordinary MODELS data card.          |  o5:=X0F
      Another ordinary MODELS data card.          |  O6:=X1F
      Another ordinary MODELS data card.          |  o7:=RDIVX
      Another ordinary MODELS data card.          |  o8:=RINSER
      Another ordinary MODELS data card.          |  o9:=CLOSE1
      Another ordinary MODELS data card.          |  o10:=RPpos
      Another ordinary MODELS data card.          |  o11:=RPcero
      Another ordinary MODELS data card.          |  o12:=LPpos
      Another ordinary MODELS data card.          |  o13:=LPcero
      Another ordinary MODELS data card.          |
      Another ordinary MODELS data card.          |ENDINIT
      Another ordinary MODELS data card.          |EXEC
      Another ordinary MODELS data card.          |ENDEXEC
      Another ordinary MODELS data card.          |ENDMODEL
      Another ordinary MODELS data card.          |MODEL DEFAULT1
      Another ordinary MODELS data card.          |DATA CPpos,CPcero,Xp,CR,SIMET,ENC1,ENC2,ENC1AS,ENC2AS
      Another ordinary MODELS data card.          |OUTPUT o1, o2, o3, o4, o5, o6, o7, o8, o9
      Another ordinary MODELS data card.          |VAR o1, o2, o3, o4, o5, o6, o7, o8, o9
      Another ordinary MODELS data card.          |INIT
      Another ordinary MODELS data card.          |  o1:=CPpos
      Another ordinary MODELS data card.          |  o2:=CPcero
      Another ordinary MODELS data card.          |  o3:=Xp
      Another ordinary MODELS data card.          |  o4:=CR
      Another ordinary MODELS data card.          |  o5:=SIMET
      Another ordinary MODELS data card.          |  o6:=ENC1
      Another ordinary MODELS data card.          |  o7:=ENC2
      Another ordinary MODELS data card.          |  o8:=ENC1AS
      Another ordinary MODELS data card.          |  o9:=ENC2AS
      Another ordinary MODELS data card.          |
      Another ordinary MODELS data card.          |ENDINIT
      Another ordinary MODELS data card.          |EXEC
      Another ordinary MODELS data card.          |ENDEXEC
      Another ordinary MODELS data card.          |ENDMODEL
      Another ordinary MODELS data card.          |USE DEFAULT AS DEFAULT
      Another ordinary MODELS data card.          |DATA
      Another ordinary MODELS data card.          |  AnVol:=      0.0
      Another ordinary MODELS data card.          |  LONG:=  155.992
      Another ordinary MODELS data card.          |  R0F:= 2.391605
      Another ordinary MODELS data card.          |  R1F:= 2.137991
      Another ordinary MODELS data card.          |  X0F:= 16.03234
      Another ordinary MODELS data card.          |  X1F:= 14.33221
      Another ordinary MODELS data card.          |  RDIVX:= 0.149174
      Another ordinary MODELS data card.          |  RINSER:=     400.
      Another ordinary MODELS data card.          |  CLOSE1:= 0.056718
      Another ordinary MODELS data card.          |  RPpos:= 0.024624
      Another ordinary MODELS data card.          |  RPcero:= 0.294668
      Another ordinary MODELS data card.          |  LPpos:= 0.378486
      Another ordinary MODELS data card.          |  LPcero:= 1.001168
      Another ordinary MODELS data card.          |OUTPUT
      Another ordinary MODELS data card.          |  AnVol:=o1
      Another ordinary MODELS data card.          |  LONG:=o2
      Another ordinary MODELS data card.          |  R0F:=o3
      Another ordinary MODELS data card.          |  R1F:=o4
      Another ordinary MODELS data card.          |  X0F:=o5
      Another ordinary MODELS data card.          |  X1F:=o6
      Another ordinary MODELS data card.          |  RDIVX:=o7
      Another ordinary MODELS data card.          |  RINSER:=o8
      Another ordinary MODELS data card.          |  CLOSE1:=o9
      Another ordinary MODELS data card.          |  RPpos:=o10
      Another ordinary MODELS data card.          |  RPcero:=o11
      Another ordinary MODELS data card.          |  LPpos:=o12
      Another ordinary MODELS data card.          |  LPcero:=o13
      Another ordinary MODELS data card.          |ENDUSE
      Another ordinary MODELS data card.          |USE DEFAULT1 AS DEF
      Another ordinary MODELS data card.          |DATA
      Another ordinary MODELS data card.          |  CPpos:= 0.010836
      Another ordinary MODELS data card.          |  CPcero:= 0.007846
      Another ordinary MODELS data card.          |  Xp:= 2897.109
      Another ordinary MODELS data card.          |  CR:= 57.94218
      Another ordinary MODELS data card.          |  SIMET:=       1.
      Another ordinary MODELS data card.          |  ENC1:=      0.0
      Another ordinary MODELS data card.          |  ENC2:=      0.0
      Another ordinary MODELS data card.          |  ENC1AS:=      0.0
      Another ordinary MODELS data card.          |  ENC2AS:=      0.0
      Another ordinary MODELS data card.          |OUTPUT
      Another ordinary MODELS data card.          |  CPpos:=o1
      Another ordinary MODELS data card.          |  CPcero:=o2
      Another ordinary MODELS data card.          |  Xp:=o3
      Another ordinary MODELS data card.          |  CR:=o4
      Another ordinary MODELS data card.          |  SIMET:=o5
      Another ordinary MODELS data card.          |  ENC1:=o6
      Another ordinary MODELS data card.          |  ENC2:=o7
      Another ordinary MODELS data card.          |  ENC1AS:=o8
      Another ordinary MODELS data card.          |  ENC2AS:=o9
      Another ordinary MODELS data card.          |ENDUSE
      Another ordinary MODELS data card.          |RECORD
      Another ordinary MODELS data card.          |  DEFAULT.o1 AS AnVOL
      Another ordinary MODELS data card.          |  DEFAULT.o2 AS LONG
      Another ordinary MODELS data card.          |  DEFAULT.o3 AS R0F
      Another ordinary MODELS data card.          |  DEFAULT.o4 AS R1F
      Another ordinary MODELS data card.          |  DEFAULT.o5 AS X0F
      Another ordinary MODELS data card.          |  DEFAULT.o6 AS X1F
      Another ordinary MODELS data card.          |  DEFAULT.o7 AS RDIVX
      Another ordinary MODELS data card.          |  DEFAULT.o8 AS RINSER
      Another ordinary MODELS data card.          |  DEFAULT.o9 AS CLOSE1
      Another ordinary MODELS data card.          |  DEFAULT.o10 AS RPpos
      Another ordinary MODELS data card.          |  DEFAULT.o11 AS RPcero
      Another ordinary MODELS data card.          |  DEFAULT.o12 AS LPpos
      Another ordinary MODELS data card.          |  DEFAULT.o13 AS LPcero
      Another ordinary MODELS data card.          |  DEF.o1 AS CPpos
      Another ordinary MODELS data card.          |  DEF.o2 AS CPcero
      Another ordinary MODELS data card.          |  DEF.o3 AS Xp
      Another ordinary MODELS data card.          |  DEF.o4 AS CR
      Another ordinary MODELS data card.          |  DEF.o5 AS SIMET
      Another ordinary MODELS data card.          |  DEF.o6 AS ENC1
      Another ordinary MODELS data card.          |  DEF.o7 AS ENC2
      Another ordinary MODELS data card.          |  DEF.o8 AS ENC1AS
      Another ordinary MODELS data card.          |  DEF.o9 AS ENC2AS
Termination of data for Laurent Dube`s MODELS.    |ENDMODELS
Comment card.   NUMDCD = 153.                     |C        1         2         3         4         5         6         7         8
Comment card.   NUMDCD = 154.                     |C 345678901234567890123456789012345678901234567890123456789012345678901234567890
Optional blank card follows last of MODELS data.  |BLANK MODELS
Comment card.   NUMDCD = 156.                     |C < n1 >< n2 ><ref1><ref2>< R  >< L  >< C  >
Comment card.   NUMDCD = 157.                     |C < n1 >< n2 ><ref1><ref2>< R  >< A  >< B  ><Leng><><>0
1st of coupled R-L.   2.39160E+00  5.10325E-02    |51IFUENASB1A              2.391616.032343212
2nd coil. 2.138E+00 4.562E-02 0.000E+00 0.000E+00 |52IFUENBSB1B               2.13814.332214831
Zca, Zcc= 8.453E-02 1.804E-03 2.223E+00 4.742E-02 |53IFUENCSB1C
Series R-L-C.   1.000E+09  0.000E+00  0.000E+00   |  SB1A                      1.E9                                               0
Series R-L-C.   1.000E+09  0.000E+00  0.000E+00   |  SB1B                      1.E9                                               0
Series R-L-C.   1.000E+09  0.000E+00  0.000E+00   |  SB1C                      1.E9                                               0
Series R-L-C.   1.000E+09  0.000E+00  0.000E+00   |  RSNSHA                    1.E9                                               0
Series R-L-C.   1.000E+09  0.000E+00  0.000E+00   |  RSNSHB                    1.E9                                               0
Series R-L-C.   1.000E+09  0.000E+00  0.000E+00   |  RSNSHC                    1.E9                                               0
Series R-L-C.   1.000E+09  0.000E+00  0.000E+00   |  RSNNHA                    1.E9                                               0
Series R-L-C.   1.000E+09  0.000E+00  0.000E+00   |  RSNNHB                    1.E9                                               0
Series R-L-C.   1.000E+09  0.000E+00  0.000E+00   |  RSNNHC                    1.E9                                               0
Series R-L-C.   1.000E+09  0.000E+00  0.000E+00   |  SE2A                      1.E9                                               0
Series R-L-C.   1.000E+09  0.000E+00  0.000E+00   |  SE2B                      1.E9                                               0
Series R-L-C.   1.000E+09  0.000E+00  0.000E+00   |  SE2C                      1.E9                                               0
Series R-L-C.   2.500E+02  0.000E+00  3.000E-10   |  X0001B                    250.       .0003                                   0
Series R-L-C.   2.500E+02  0.000E+00  3.000E-10   |  X0002B                    250.       .0003                                   0
Series R-L-C.   1.000E-06  0.000E+00  0.000E+00   |  X0001ALN1A               1.E-6                                               0
Series R-L-C.   1.000E-06  0.000E+00  0.000E+00   |  SB1A  X0002A             1.E-6                                               0
Series R-L-C.   1.000E-06  0.000E+00  0.000E+00   |  X0001BLN1B               1.E-6                                               0
Series R-L-C.   1.000E-06  0.000E+00  0.000E+00   |  SB1B  X0002B             1.E-6                                               0
Series R-L-C.   1.000E-06  0.000E+00  0.000E+00   |  X0001CLN1C               1.E-6                                               0
Series R-L-C.   1.000E-06  0.000E+00  0.000E+00   |  SB1C  X0002C             1.E-6                                               0
Series R-L-C.   4.000E+02  0.000E+00  0.000E+00   |  XX0005X0002A              400.                                               0
Series R-L-C.   4.000E+02  0.000E+00  0.000E+00   |  XX0003X0002B              400.                                               0
Series R-L-C.   4.000E+02  0.000E+00  0.000E+00   |  XX0004X0002C              400.                                               0
Series R-L-C.   2.500E+02  0.000E+00  3.000E-10   |  X0001A                    250.       .0003                                   0
Series R-L-C.   1.000E+06  0.000E+00  0.000E+00   |  X0001AX0002A              1.E6                                               0
Series R-L-C.   1.000E+06  0.000E+00  0.000E+00   |  X0001BX0002B              1.E6                                               0
Series R-L-C.   1.000E+06  0.000E+00  0.000E+00   |  X0001CX0002C              1.E6                                               0
Series R-L-C.   2.500E+02  0.000E+00  3.000E-10   |  X0002C                    250.       .0003                                   0
Series R-L-C.   2.500E+02  0.000E+00  3.000E-10   |  X0002A                    250.       .0003                                   0
Series R-L-C.   2.500E+02  0.000E+00  3.000E-10   |  X0001C                    250.       .0003                                   0
Series R-L-C.   1.250E+02  0.000E+00  6.000E-10   |  X0001AX0002A              125.       .0006                                   0
Series R-L-C.   1.250E+02  0.000E+00  6.000E-10   |  X0001BX0002B              125.       .0006                                   0
Series R-L-C.   1.250E+02  0.000E+00  6.000E-10   |  X0001CX0002C              125.       .0006                                   0
 2.947E-01 1.001E+00 7.850E-03 6.372E+02 7.802E-04|-1LN1A  VFF2A             .294671.0012.00785155.99 0 0                         0
 2.462E-02 3.785E-01 1.084E-02 3.334E+02 5.637E-04|-2LN1B  VFF2B             .02462.37849.01084155.99 0 0                         0
3rd or later transposed distributed phase.        |-3LN1C  VFF2C                                                                  0
Blank card ending branches.  IBR, NTOT = 39  31   |BLANK BRANCH
Comment card.   NUMDCD = 198.                     |C < n 1>< n 2>< Tclose ><Top/Tde ><   Ie   ><Vf/CLOP ><  type  >
Switch.  -1.00E+00  1.00E+01  0.00E+00  0.00E+00  |  LN1A  COMPA        -1.       10.                                             0
Switch.  -1.00E+00  1.00E+01  0.00E+00  0.00E+00  |  LN1B  COMPB        -1.       10.                                             0
Switch.  -1.00E+00  1.00E+01  0.00E+00  0.00E+00  |  LN1C  COMPC        -1.       10.                                             0
Switch.  -1.00E+00  1.00E+01  0.00E+00  0.00E+00  |  VFF2A RSNNHA       -1.       10.                                             0
Switch.  -1.00E+00  1.00E+01  0.00E+00  0.00E+00  |  VFF2B RSNNHB       -1.       10.                                             0
Switch.  -1.00E+00  1.00E+01  0.00E+00  0.00E+00  |  VFF2C RSNNHC       -1.       10.                                             0
Switch.   2.00E+00 -1.00E+00  0.00E+00  0.00E+00  |  VFF2A SE2A          2.       -1.                                             0
Switch.   2.00E+00 -1.00E+00  0.00E+00  0.00E+00  |  VFF2B SE2B          2.       -1.                                             0
Switch.   2.00E+00 -1.00E+00  0.00E+00  0.00E+00  |  VFF2C SE2C          2.       -1.                                             0
Switch.   5.67E-02  1.00E+03  0.00E+00  0.00E+00  |  X0001BXX0003.056718298      1.E3                                             0
Switch.   5.67E-02  1.00E+03  0.00E+00  0.00E+00  |  X0001CXX0004.056718298      1.E3                                             0
Switch.   6.42E-02  1.00E+03  0.00E+00  0.00E+00  |  XX0005X0002A.064218298      1.E3                                             0
Switch.   6.42E-02  1.00E+03  0.00E+00  0.00E+00  |  XX0003X0002B.064218298      1.E3                                             0
Switch.   6.42E-02  1.00E+03  0.00E+00  0.00E+00  |  XX0004X0002C.064218298      1.E3                                             0
Switch.   5.67E-02  1.00E+03  0.00E+00  0.00E+00  |  X0001AXX0005.056718298      1.E3                                             0
Permanently-closed switch used for metering.      |  VFUENAIFUENA                                        MEASURING                1
Permanently-closed switch used for metering.      |  VFUENBIFUENB                                        MEASURING                1
Permanently-closed switch used for metering.      |  VFUENCIFUENC                                        MEASURING                1
Permanently-closed switch used for metering.      |  COMPA RSNSHA                                        MEASURING                1
Permanently-closed switch used for metering.      |  COMPB RSNSHB                                        MEASURING                1
Permanently-closed switch used for metering.      |  COMPC RSNSHC                                        MEASURING                1
Blank card ending switches.   KSWTCH = 21.        |BLANK SWITCH
Comment card.   NUMDCD = 221.                     |C < n 1><>< Ampl.  >< Freq.  ><Phase/T0><   A1   ><   T1   >< TSTART >< TSTOP  >
Source.   4.29E+05  5.00E+01  0.00E+00 -1.00E+00  |14VFUENA  428660.705       50.                                     -1.      100.
Source.   4.29E+05  5.00E+01 -1.20E+02 -1.00E+00  |14VFUENB  428660.705       50.     -120.                           -1.      100.
Source.   4.29E+05  5.00E+01 -2.40E+02 -1.00E+00  |14VFUENC  428660.705       50.     -240.                           -1.      100.
Blank card ends electric sources.  KCONST = 3     |BLANK SOURCE
Pi-equivalent branches of distributed circuits are added to the table of List Size 3 between indices  40   and  45.

Sinusoidal steady-state phasor solution, branch by branch.   All flows are away from a bus,  and the real part,  magnitude,  or  "P"
is printed above the imaginary part,  the angle,  or  "Q".   The first solution frequency  =  5.00000000E+01  Hertz.
  Bus K                        Phasor  node  voltage              Phasor  branch  current               Power flow       Power loss
             Bus M         Rectangular            Polar          Rectangular            Polar            P  and  Q        P  and  Q

 IFUENA                    428660.705       428660.705           .428788047  .44579629107554      91902.293261296  .21244700212254
                                  0.0              0.0      .12196369905277       15.8777767      -26140.52261018        1.4241516

            SB1A      428661.53626109  428661.53630896          -.428788047  .44579629107554      -91902.08081429
                      -6.406240795141       -0.0008563      -.1219636990528     -164.1222233      26141.946761763

 IFUENB                  -214330.3525       428660.705      -.1087703617849  .44579629107348      91902.293261153  .21244700212186
                      -371231.0601341     -120.0000000      -.4323231910643     -104.1222233      -26140.52260907        1.4241516

            SB1B      -214336.3160978  428661.53630896      .10877036178494  .44579629107348      -91902.08081415
                       -371228.576907     -120.0008563      .43232319106433       75.8777767       26141.94676065

 IFUENC                  -214330.3525       428660.705      -.3200176852201  .44579629107597      91902.293261336  .21244700212348
                      371231.06013415      120.0000000      .31035949201443      135.8777767      -26140.52261038        1.4241516

            SB1C      -214325.2201633  428661.53630896       .3200176852201  .44579629107597      -91902.08081433
                      371234.98314777      119.9991437      -.3103594920144      -44.1222233      26141.946761958

 SB1A                 428661.53626109  428661.53630896      .42866153626E-3  .42866153631E-3       91.87535635538   91.87535635538
                      -6.406240795141       -0.0008563      -.6406240795E-8       -0.0008563      .1238785685E-19        0.0000000

            TERRA                 0.0              0.0      -.4286615363E-3  .42866153631E-3                  0.0
                                  0.0              0.0      .64062407951E-8      179.9991437                  0.0

 SB1B                 -214336.3160978  428661.53630896      -.2143363161E-3  .42866153631E-3       91.87535635538   91.87535635538
                       -371228.576907     -120.0008563      -.3712285769E-3     -120.0008563      -.170002901E-15        0.0000000

            TERRA                 0.0              0.0       .2143363161E-3  .42866153631E-3                  0.0
                                  0.0              0.0      .37122857691E-3       59.9991437                  0.0

 SB1C                 -214325.2201633  428661.53630896      -.2143252202E-3  .42866153631E-3       91.87535635538   91.87535635538
                      371234.98314777      119.9991437      .37123498315E-3      119.9991437      .8708311849E-15        0.0000000

            TERRA                 0.0              0.0      .21432522016E-3  .42866153631E-3                  0.0
                                  0.0              0.0      -.3712349831E-3      -60.0008563                  0.0

 RSNSHA               152.52518501827  812.11616198137      .15252518502E-6  .81211616198E-6      .32976633028E-3  .32976633028E-3
                      -797.6645463392      -79.1748758      -.7976645463E-6      -79.1748758      .3417910291E-20        0.0000000

            TERRA                 0.0              0.0       -.152525185E-6  .81211616198E-6                  0.0
                                  0.0              0.0      .79766454634E-6      100.8251242                  0.0

 RSNSHB               -767.0603533371  812.11616198137      -.7670603533E-6  .81211616198E-6      .32976633028E-3  .32976633028E-3
                      266.74158822684      160.8251242      .26674158823E-6      160.8251242      .6551270451E-21        0.0000000

            TERRA                 0.0              0.0      .76706035334E-6  .81211616198E-6                  0.0
                                  0.0              0.0      -.2667415882E-6      -19.1748758                  0.0

 RSNSHC               614.53516831878  812.11616198137      .61453516832E-6  .81211616198E-6      .32976633028E-3  .32976633028E-3
                      530.92295811233       40.8251242      .53092295811E-6       40.8251242      .7040961374E-20        0.0000000

            TERRA                 0.0              0.0      -.6145351683E-6  .81211616198E-6                  0.0
                                  0.0              0.0      -.5309229581E-6     -139.1748758                  0.0

 RSNNHA               154.11317422969  825.01988664446      .15411317423E-6  .82501988664E-6      .34032890668E-3  .34032890668E-3
                      -810.4979598294      -79.2339438      -.8104979598E-6      -79.2339438      .1786710123E-21        0.0000000

            TERRA                 0.0              0.0      -.1541131742E-6  .82501988664E-6                  0.0
                                  0.0              0.0      .81049795983E-6      100.7660562                  0.0

 RSNNHB               -778.9684100426  825.01988664446        -.77896841E-6  .82501988664E-6      .34032890668E-3  .34032890668E-3
                      271.78305597395      160.7660562      .27178305597E-6      160.7660562      .3692534254E-20        0.0000000

            TERRA                 0.0              0.0      .77896841004E-6  .82501988664E-6                  0.0
                                  0.0              0.0       -.271783056E-6      -19.2339438                  0.0

 RSNNHC               624.85523581291  825.01988664446      .62485523581E-6  .82501988664E-6      .34032890668E-3  .34032890668E-3
                      538.71490385549       40.7660562      .53871490386E-6       40.7660562      .2317429204E-19        0.0000000

            TERRA                 0.0              0.0      -.6248552358E-6  .82501988664E-6                  0.0
                                  0.0              0.0      -.5387149039E-6     -139.2339438                  0.0

 X0001B               -767.0603534806  812.11616198171      -.2514150575E-4  .76540145029E-4      .73229922513E-6  .73229922513E-6
                      266.74158781516      160.8251243      -.7229314276E-4     -109.1762257      -.0310797444006       -0.0310797

            TERRA                 0.0              0.0      .25141505748E-4  .76540145029E-4                  0.0
                                  0.0              0.0      .72293142758E-4       70.8237743                  0.0

 X0002B               -214336.3160977  428661.53630853      .03498699311265  .04040039798909      .20402401970922  .20402401970922
                      -371228.5769065     -120.0008563      -.0202015462431      -30.0022063      -8659.048332336    -8659.0483323

            TERRA                 0.0              0.0      -.0349869931126  .04040039798909                  0.0
                                  0.0              0.0      .02020154624311      149.9977937                  0.0

 X0001A               152.52518544656  812.11616198171       .4282865688765  .43598120778724      .13789787548224  .95039806774E-7
                      -797.6645462576      -79.1748757      .08154893293977       10.7804945      -177.0336388754        0.0000000

            LN1A      152.52518501827  812.11616198137      -.4282865688765  .43598120778724      -.1378977804424
                      -797.6645463392      -79.1748758      -.0815489329398     -169.2195055      177.03363887536

 SB1A                 428661.53626109  428661.53630896      .42835017666221  .44537514454599      91808.231728432  .99179501944E-7
                      -6.406240795141       -0.0008563      .12196370580142       15.8931888      -26141.94680565        0.0000000

            X0002A    428661.53626066  428661.53630853      -.4283501766622  .44537514454599      -91808.23172833
                      -6.406240917105       -0.0008563      -.1219637058014     -164.1068112      26141.946805654

 X0001B               -767.0603534806  812.11616198171      -.1435198555555  .43598122431468      .13790358025432  .95039813974E-7
                      266.74158781516      160.8251243      -.4116815262023     -109.2195073       -177.033645582              0.0

            LN1B      -767.0603533371  812.11616198137       .1435198555555  .43598122431468      -.1379034852145
                      266.74158822684      160.8251242       .4116815262023       70.7804927      177.03364558202

 SB1B                 -214336.3160978  428661.53630896      -.1085572876036  .44539118422414      91811.656566251  .99186650004E-7
                       -371228.576907     -120.0008563      -.4319590516388     -104.1070709       -26142.4722217              0.0

            X0002B    -214336.3160977  428661.53630853      .10855728760362  .44539118422414      -91811.65656615
                      -371228.5769065     -120.0008563      .43195905163884       75.8929291      26142.472221702

 X0001C               614.53516803402  812.11616198171      -.2847667701644  .43598124102319      .13788906986454  .95039821263E-7
                      530.92295844247       40.8251243      .33013259326253      130.7804974      -177.0336523779              0.0

            LN1C      614.53516831878  812.11616198137      .28476677016442  .43598124102319      -.1378889748247
                      530.92295811233       40.8251242      -.3301325932625      -49.2195026      177.03365237795

 SB1C                 -214325.2201633  428661.53630896      -.3197928890586  .44535388889331      91803.057725742  .99170037515E-7
                      371234.98314777      119.9991437      .30995579436421      135.8949255      -26143.48195622              0.0

            X0002C     -214325.220163  428661.53630853      .31979288905859  .44535388889331      -91803.05772564
                      371234.98314746      119.9991437      -.3099557943642      -44.1050745      26143.481956224

 XX0005               428661.53626066  428661.53630853                  0.0              0.0                  0.0              0.0
                      -6.406240917105       -0.0008563                  0.0              0.0                  0.0              0.0

            X0002A    428661.53626066  428661.53630853                  0.0              0.0                  0.0
                      -6.406240917105       -0.0008563                  0.0              0.0                  0.0

 XX0003               -214336.3160977  428661.53630853                  0.0              0.0                  0.0              0.0
                      -371228.5769065     -120.0008563                  0.0              0.0                  0.0              0.0

            X0002B    -214336.3160977  428661.53630853                  0.0              0.0                  0.0
                      -371228.5769065     -120.0008563                  0.0              0.0                  0.0

 XX0004                -214325.220163  428661.53630853                  0.0              0.0                  0.0              0.0
                      371234.98314746      119.9991437                  0.0              0.0                  0.0              0.0

            X0002C     -214325.220163  428661.53630853                  0.0              0.0                  0.0
                      371234.98314746      119.9991437                  0.0              0.0                  0.0

 X0001A               152.52518544656  812.11616198171      .75178451022E-4  .76540145029E-4      .73229922513E-6  .73229922513E-6
                      -797.6645462576      -79.1748757      .14373388712E-4       10.8237743      -.0310797444006       -0.0310797

            TERRA                 0.0              0.0      -.7517845102E-4  .76540145029E-4                  0.0
                                  0.0              0.0      -.1437338871E-4     -169.1762257                  0.0

 X0001A               152.52518544656  812.11616198171      -.4285090110752  .42850974161898      -32.36362884133  91810.299331183
                      -797.6645462576      -79.1748757      -.7912583053E-3     -179.8942013      170.96356635319        0.0000000

            X0002A    428661.53626066  428661.53630853      .42850901107522  .42850974161898      91842.662960024
                      -6.406240917105       -0.0008563      .79125830534E-3        0.1057987      -170.9635663532

 X0001B               -767.0603534806  812.11616198171      .21356925574423  .42850974161898      -32.36362884133  91810.299331183
                      266.74158781516      160.8251243      .37149531849436       60.1057987      170.96356635319        0.0000000

            X0002B    -214336.3160977  428661.53630853      -.2135692557442  .42850974161898      91842.662960024
                      -371228.5769065     -120.0008563      -.3714953184944     -119.8942013      -170.9635663532

 X0001C               614.53516803402  812.11616198171      .21493975533099  .42850974161898      -32.36362884133  91810.299331183
                      530.92295844247       40.8251243       -.370704060189      -59.8942013      170.96356635319        0.0000000

            X0002C     -214325.220163  428661.53630853       -.214939755331  .42850974161898      91842.662960024
                      371234.98314746      119.9991437      .37070406018902      120.1057987      -170.9635663532

 X0002C                -214325.220163  428661.53630853      -.0349885487986  .04040039798909      .20402401970984  .20402401970984
                      371234.98314746      119.9991437       -.020198851716     -150.0022063      -8659.048332336    -8659.0483323

            TERRA                 0.0              0.0      .03498854879858  .04040039798909                  0.0
                                  0.0              0.0      .02019885171603       29.9977937                  0.0

 X0002A               428661.53626066  428661.53630853      .15556859328E-5  .04040039798909      .20402401970958  .20402401970958
                      -6.406240917105       -0.0008563      .04040039795914       89.9977937      -8659.048332336    -8659.0483323

            TERRA                 0.0              0.0      -.1555685933E-5  .04040039798909                  0.0
                                  0.0              0.0      -.0404003979591      -90.0022063                  0.0

 X0001C               614.53516803402  812.11616198171      -.5003694527E-4  .76540145029E-4      .73229922513E-6  .73229922513E-6
                      530.92295844247       40.8251243      .57919754046E-4      130.8237743      -.0310797444006       -0.0310797

            TERRA                 0.0              0.0      .50036945274E-4  .76540145029E-4                  0.0
                                  0.0              0.0      -.5791975405E-4      -49.1762257                  0.0

 X0001A               152.52518544656  812.11616198171      .14724553018E-3  .08077218335329      32.225729290015  .40775910022859
                      -797.6645462576      -79.1748757      -.0807720491408      -89.8955513      6.1011596175443   -17305.8337046

            X0002A    428661.53626066  428661.53630853      -.1472455302E-3  .08077218335329      -31.81797018979
                      -6.406240917105       -0.0008563      .08077204914085       90.1044487      -17311.93486417

 X0001B               -767.0603534806  812.11616198171      -.0700242692368  .08077218335329      32.225729290015  .40775910022949
                      266.74158781516      160.8251243       .0402585062007      150.1044487      6.1011596175444   -17305.8337046

            X0002B    -214336.3160977  428661.53630853      .07002426923679  .08077218335329      -31.81797018979
                      -371228.5769065     -120.0008563      -.0402585062007      -29.8955513      -17311.93486417

 X0001C               614.53516803402  812.11616198171      .06987702370661  .08077218335329      32.225729290015  .40775910022908
                      530.92295844247       40.8251243      .04051354294015       30.1044487      6.1011596175443   -17305.8337046

            X0002C     -214325.220163  428661.53630853      -.0698770237066  .08077218335329      -31.81797018979
                      371234.98314746      119.9991437      -.0405135429402     -149.8955513      -17311.93486417

 LN1A                 152.52518501827  812.11616198137      .42828643697649  .43598122527043      .13757416312176   .1372338342152
                      -797.6645463392      -79.1748758      .08154971913062       10.7805993      -177.0336462263     -177.0336462

            VFF2A     154.11317422969  825.01988664446      -.1541131747E-6  .82501988635E-6      -.3403289066E-3
                      -810.4979598294      -79.2339438      .81049795945E-6      100.7660563      .2020955425E-12

 LN1B                 -767.0603533371  812.11616198137      -.1435190900496  .43598122527043      .13757416312192  .13723383421528
                      266.74158822684      160.8251242      -.4116817940833     -109.2194007      -177.0336462263     -177.0336462

            VFF2B     -778.9684100426  825.01988664446      .77896841003E-6  .82501988654E-6      -.3403289066E-3
                      271.78305597395      160.7660562      -.2717830557E-6      -19.2339438      .1113638949E-12

 LN1C                 614.53516831878  812.11616198137      -.2847673469268  .43598122527043      .13757416312188   .1372338342152
                      530.92295811233       40.8251242      .33013207495266      130.7805993      -177.0336462263     -177.0336462

            VFF2C     624.85523581291  825.01988664446      -.6248552361E-6  .82501988664E-6      -.3403289067E-3
                      538.71490385549       40.7660562      -.5387149036E-6     -139.2339438      -.159609126E-12
     Total network loss  P-loss  by summing injections =   2.756911222355E+05

Output for steady-state phasor switch currents.
      Node-K    Node-M            I-real            I-imag            I-magn          Degrees        Power            Reactive
      LN1A      COMPA         1.33776476E-07   -7.44991904E-07    7.56907578E-07     -79.8200    3.07328955E-04    3.46063800E-06
      LN1B      COMPB        -8.56161368E-07    3.01737049E-07    9.07776148E-07     160.5860    3.68606631E-04    1.53834235E-06
      LN1C      COMPC         6.60721270E-07    5.36709641E-07    8.51240175E-07      39.0873    3.45493963E-04    1.04825709E-05
      VFF2A     RSNNHA        1.54113175E-07   -8.10497959E-07    8.25019886E-07     -79.2339    3.40328906E-04   -3.60111281E-13
      VFF2B     RSNNHB       -7.78968410E-07    2.71783056E-07    8.25019887E-07     160.7661    3.40328907E-04    2.60343820E-14
      VFF2C     RSNNHC        6.24855236E-07    5.38714904E-07    8.25019887E-07      40.7661    3.40328907E-04    1.69078332E-13
      VFF2A     SE2A              Open              Open              Open             Open          Open              Open
      VFF2B     SE2B              Open              Open              Open             Open          Open              Open
      VFF2C     SE2C              Open              Open              Open             Open          Open              Open
      X0001B    XX0003            Open              Open              Open             Open          Open              Open
      X0001C    XX0004            Open              Open              Open             Open          Open              Open
      XX0005    X0002A            Open              Open              Open             Open          Open              Open
      XX0003    X0002B            Open              Open              Open             Open          Open              Open
      XX0004    X0002C            Open              Open              Open             Open          Open              Open
      X0001A    XX0005            Open              Open              Open             Open          Open              Open
      VFUENA    IFUENA        4.28788047E-01    1.21963699E-01    4.45796291E-01      15.8778    9.19022933E+04   -2.61405226E+04
      VFUENB    IFUENB       -1.08770362E-01   -4.32323191E-01    4.45796291E-01    -104.1222    9.19022933E+04   -2.61405226E+04
      VFUENC    IFUENC       -3.20017685E-01    3.10359492E-01    4.45796291E-01     135.8778    9.19022933E+04   -2.61405226E+04
      COMPA     RSNSHA        1.33776476E-07   -7.44991904E-07    7.56907578E-07     -79.8200    3.07328955E-04    3.46063800E-06
      COMPB     RSNSHB       -8.56161368E-07    3.01737049E-07    9.07776148E-07     160.5860    3.68606631E-04    1.53834235E-06
      COMPC     RSNSHC        6.60721270E-07    5.36709641E-07    8.51240175E-07      39.0873    3.45493963E-04    1.04825709E-05

Solution at nodes with known voltage.   Nodes that are shorted together by switches are shown as a group of names, with the printed
result applying to the composite group.   The entry "MVA" is  SQRT( P**2 + Q**2 )  in units of power,  while  "P.F."  is the
associated power factor.
              Node                Source  node  voltage             Injected  source  current              Injected  source  power
              name         Rectangular            Polar          Rectangular            Polar            P  and  Q    MVA and P.F.

               VFUENA
              IFUENA       428660.705       428660.705      .42878804700041  .44579629107482      91902.293261385  95547.676209258
                                  0.0              0.0      .12196369904868       15.8777767      -26140.52260931        0.9618475

               VFUENB
              IFUENB     -214330.3525       428660.705       -.108770361784  .44579629107322      91902.293261048  95547.676208916
                      -371231.0601341     -120.0000000      -.4323231910643     -104.1222233      -26140.52260924        0.9618475

               VFUENC
              IFUENC     -214330.3525       428660.705       -.320017685221  .44579629107585       91902.29326123  95547.676209479
                      371231.06013415      120.0000000      .31035949201335      135.8777767      -26140.52261066        0.9618475

  +++  Node  "COMPC "  has no connected linear branches.  Add (to ground) the conductance  G = 1.00000000E-18  mhos.
  +++  Node  "COMPB "  has no connected linear branches.  Add (to ground) the conductance  G = 1.00000000E-18  mhos.
  +++  Node  "COMPA "  has no connected linear branches.  Add (to ground) the conductance  G = 1.00000000E-18  mhos.
Card of names for time-step loop output.          |  LN1A  LN1B  LN1C  COMPA COMPB COMPC SB1A  SB1B  SB1C  SE2A  SE2B  SE2C  VFF2A
Card of names for time-step loop output.          |  VFF2B VFF2C IFUENAIFUENBIFUENC
Card of names for time-step loop output.          |-5VFF2A VFF2B VFF2B VFF2C VFF2C VFF2A LN1A  LN1B  LN1B  LN1C  LN1C  LN1A
Card of names for time-step loop output.          |-5SB1A  SB1B  SB1B  SB1C  SB1C  SB1A
Blank card ending requests for output variables.  |BLANK OUTPUT

Column headings for the  55   EMTP output variables follow.  These are divided among the 5 possible classes as follows ....
  First  27     output variables are electric-network voltage differences (upper voltage minus lower voltage);
  Next   6     output variables are branch currents (flowing from the upper node to the lower node);
  Next   22     output variables belong to MODELS (with "MODELS" an internally-added upper name of pair).
   Step      Time      LN1A       LN1B       LN1C       COMPA      COMPB      COMPC      SB1A       SB1B       SB1C       SE2A
 

                       SE2B       SE2C       VFF2A      VFF2B      VFF2C      IFUENA     IFUENB     IFUENC     VFF2A      VFF2B
                                                                                                               VFF2B      VFF2C

                       VFF2C      LN1A       LN1B       LN1C       SB1A       SB1B       SB1C       VFUENA     VFUENB     VFUENC
                       VFF2A      LN1B       LN1C       LN1A       SB1B       SB1C       SB1A       IFUENA     IFUENB     IFUENC

                       COMPA      COMPB      COMPC      MODELS     MODELS     MODELS     MODELS     MODELS     MODELS     MODELS
                       RSNSHA     RSNSHB     RSNSHC     ANVOL      LONG       R0F        R1F        X0F        X1F        RDIVX

                       MODELS     MODELS     MODELS     MODELS     MODELS     MODELS     MODELS     MODELS     MODELS     MODELS
                       RINSER     CLOSE1     RPPOS      RPCERO     LPPOS      LPCERO     CPPOS      CPCERO     XP         CR

                       MODELS     MODELS     MODELS     MODELS     MODELS
                       SIMET      ENC1       ENC2       ENC1AS     ENC2AS
 ***      Phasor I(0) =  1.3377648E-07                     Switch  "LN1A  "  to  "COMPA "  closed in the steady-state.
 ***      Phasor I(0) = -8.5616137E-07                     Switch  "LN1B  "  to  "COMPB "  closed in the steady-state.
 ***      Phasor I(0) =  6.6072127E-07                     Switch  "LN1C  "  to  "COMPC "  closed in the steady-state.
 ***      Phasor I(0) =  1.5411317E-07                     Switch  "VFF2A "  to  "RSNNHA"  closed in the steady-state.
 ***      Phasor I(0) = -7.7896841E-07                     Switch  "VFF2B "  to  "RSNNHB"  closed in the steady-state.
 ***      Phasor I(0) =  6.2485524E-07                     Switch  "VFF2C "  to  "RSNNHC"  closed in the steady-state.
 ***      Phasor I(0) =  4.2878805E-01                     Switch  "VFUENA"  to  "IFUENA"  closed in the steady-state.
 ***      Phasor I(0) = -1.0877036E-01                     Switch  "VFUENB"  to  "IFUENB"  closed in the steady-state.
 ***      Phasor I(0) = -3.2001769E-01                     Switch  "VFUENC"  to  "IFUENC"  closed in the steady-state.
 ***      Phasor I(0) =  1.3377648E-07                     Switch  "COMPA "  to  "RSNSHA"  closed in the steady-state.
 ***      Phasor I(0) = -8.5616137E-07                     Switch  "COMPB "  to  "RSNSHB"  closed in the steady-state.
 ***      Phasor I(0) =  6.6072127E-07                     Switch  "COMPC "  to  "RSNSHC"  closed in the steady-state.
      0       0.0  152.525185 -767.06035 614.535168 152.525185 -767.06035 614.535168 428661.536 -214336.32 -214325.22        0.0
                          0.0        0.0 154.113174 -778.96841 624.855236 428660.705 -214330.35 -214330.35 933.081584 -1403.8236
                   470.742062 919.585538 -1381.5955 462.009983 642997.852 -11.095935 -642986.76 .428788047 -.10877036 -.32001769
                   .133776E-6 -.85616E-6 .660721E-6        0.0    155.992   2.391605   2.137991   16.03234   14.33221    .149174
                         400.    .056718    .024624    .294668    .378486   1.001168    .010836    .007846   2897.109   57.94218
                          1.0        0.0        0.0        0.0        0.0
    500     .5E-3  275.428749 -799.34372 523.914969 275.428749 -799.34372 523.914969 423385.027 -153624.55 -269760.48        0.0
                          0.0        0.0 279.005597 -811.89425 532.888648  423383.18 -153618.26 -269764.92 1090.89984 -1344.7829
                   253.883051 1074.77247 -1323.2587  248.48622 577009.574 116135.931 -693145.51 .404402452 -.03979059 -.36461187
                    .26559E-6  -.8415E-6 .519009E-6        0.0    155.992   2.391605   2.137991   16.03234   14.33221    .149174
                         400.    .056718    .024624    .294668    .378486   1.001168    .010836    .007846   2897.109   57.94218
                          1.0        0.0        0.0        0.0        0.0
   1000     .1E-2  391.552004 -811.94543 420.393424 391.552004 -811.94543 420.393424  407683.32 -89130.007 -318553.31        0.0
                          0.0        0.0 397.028827 -824.82897 427.800138 407680.557 -89123.572 -318556.98 1221.85779 -1252.6291
                   30.7713116 1203.49743 -1232.3389 28.8414204 496813.327 229423.305 -726236.63 .370090486 .030153274 -.40024376
                   .429158E-6 -.89662E-6 .467437E-6        0.0    155.992   2.391605   2.137991   16.03234   14.33221    .149174
                         400.    .056718    .024624    .294668    .378486   1.001168    .010836    .007846   2897.109   57.94218
                          1.0        0.0        0.0        0.0        0.0
   1500     .0015   498.03326 -804.55398 306.520725  498.03326 -804.55398 306.520725 381943.073 -22440.778  -359502.3        0.0
                          0.0        0.0 505.274387 -817.45291 312.178526 381939.485 -22434.368 -359505.12  1322.7273 -1129.6314
                   -193.09586 1302.58724 -1111.0747 -191.51253 404383.852 337061.517 -741445.37 .326659699 .099357636 -.42601734
                   .505952E-6 -.85393E-6 .347965E-6        0.0    155.992   2.391605   2.137991   16.03234   14.33221    .149174
                         400.    .056718    .024624    .294668    .378486   1.001168    .010836    .007846   2897.109   57.94218
                          1.0        0.0        0.0        0.0        0.0
   2000      .002  592.251121 -777.35169 185.100568 592.251121 -777.35169 185.100568 346798.254 44800.9503  -391599.2        0.0
                          0.0        0.0 601.078823 -789.94865  188.86983 346793.795 44807.2448 -391601.04 1391.02748 -978.81848
                   -412.20899 1369.60281 -962.45226 -407.15055 301997.304 436400.155 -738397.46 .275192507 .166111996  -.4413045
                   .570292E-6 -.85662E-6  .20102E-6        0.0    155.992   2.391605   2.137991   16.03234   14.33221    .149174
                         400.    .056718    .024624    .294668    .378486   1.001168    .010836    .007846   2897.109   57.94218
                          1.0        0.0        0.0        0.0        0.0
   2500     .0025  671.885227 -731.00812 59.1228894 671.885227 -731.00812 59.1228894 303113.996 110939.588 -414053.58        0.0
                          0.0        0.0 682.081726 -742.99276 60.9110352 303108.891 110945.554 -414054.45 1425.07449  -803.9038
                   -621.17069 1402.89334 -790.13101 -612.76234 192174.407 524993.173 -717167.58  .21693446  .22878345 -.44571791
                   .741003E-6 -.81765E-6 .624786E-7        0.0    155.992   2.391605   2.137991   16.03234   14.33221    .149174
                         400.    .056718    .024624    .294668    .378486   1.001168    .010836    .007846   2897.109   57.94218
                          1.0        0.0        0.0        0.0        0.0
   3000      .003  734.977349 -666.66574 -68.311607 734.977349 -666.66574 -68.311607 251966.114 174346.501 -426312.61        0.0
                          0.0        0.0 746.292483 -677.74339 -68.549091 251960.441 174352.016 -426312.46 1424.03587  -609.1943
                   -814.84157 1401.64309 -598.35414 -803.28896 77619.6122 600659.116 -678278.73 .153350051 .285813866 -.43916392
                   .793282E-6 -.70773E-6 -.71297E-7        0.0    155.992   2.391605   2.137991   16.03234   14.33221    .149174
                         400.    .056718    .024624    .294668    .378486   1.001168    .010836    .007846   2897.109   57.94218
                          1.0        0.0        0.0        0.0        0.0
   3500     .0035   779.97026 -585.90702 -194.06324  779.97026 -585.90702 -194.06324  194613.98 233460.429 -428074.41        0.0
                          0.0        0.0 792.123953  -595.8042 -196.31975 194607.888 233465.353 -428073.24 1387.92815 -399.48444
                   -988.44371 1365.87728 -391.84377  -974.0335 -38846.449 661534.839 -622688.39 .085982676 .335810083 -.42179276
                   .866177E-6  -.5646E-6 -.21626E-6        0.0    155.992   2.391605   2.137991   16.03234   14.33221    .149174
                         400.    .056718    .024624    .294668    .378486   1.001168    .010836    .007846   2897.109   57.94218
                          1.0        0.0        0.0        0.0        0.0
   4000      .004  805.757055   -490.721 -315.03605 805.757055   -490.721 -315.03605 132469.815 286825.782  -419295.6        0.0
                          0.0        0.0 818.451166 -499.19454 -319.25662 132463.443 286829.997 -419293.44 1317.64571 -179.93792
                   -1137.7078 1296.47805 -175.68494 -1120.7931 -154355.97 706121.378 -551765.41 .016500822 .377536193 -.39403702
                   .789173E-6 -.53348E-6 -.31249E-6        0.0    155.992   2.391605   2.137991   16.03234   14.33221    .149174
                         400.    .056718    .024624    .294668    .378486   1.001168    .010836    .007846   2897.109   57.94218
                          1.0        0.0        0.0        0.0        0.0
   4500     .0045  811.703891 -383.45204 -428.25185 811.703891 -383.45204 -428.25185 67063.7552 333128.555 -400192.31        0.0
                          0.0        0.0 824.628035 -390.29441 -434.33362 67057.3081 333131.936 -400189.24 1214.92245 44.0392062
                   -1258.9617 1195.15593 44.7998191 -1239.9557  -266064.8 733320.866 -467256.07 -.05338937 .409967115 -.35657775
                   .834016E-6 -.39985E-6 -.43417E-6        0.0    155.992   2.391605   2.137991   16.03234   14.33221    .149174
                         400.    .056718    .024624    .294668    .378486   1.001168    .010836    .007846   2897.109   57.94218
                          1.0        0.0        0.0        0.0        0.0
   5000      .005  797.663981 -266.74124 -530.92274 797.663981 -266.74124 -530.92274  6.4156438 371228.572 -371234.99        0.0
                          0.0        0.0 810.498482 -271.78326 -538.71522 -.45661E-7  371231.06 -371231.06 1082.28174 266.931968
                   -1349.2137 1064.40522   264.1815 -1328.5867 -371222.16  742463.56  -371241.4 -.12196208 .432301869 -.31033979
                   .814083E-6 -.27643E-6 -.59447E-6        0.0    155.992   2.391605   2.137991   16.03234   14.33221    .149174
                         400.    .056718    .024624    .294668    .378486   1.001168    .010836    .007846   2897.109   57.94218
                          1.0        0.0        0.0        0.0        0.0
   5500     .0055  763.982979 -143.46242 -620.52055 763.982979 -143.46242 -620.52055 -67051.112 400187.725 -333136.61        0.0
                          0.0        0.0 776.411453 -146.57972 -629.83173 -67057.308 400189.244 -333131.94 922.991177 483.252004
                   -1406.2432 907.445403  477.05813 -1384.5035 -467238.84 733324.337  -266085.5 -.18753547 .443993807 -.25645833
                   .819259E-6 -.14777E-6 -.69995E-6        0.0    155.992   2.391605   2.137991   16.03234   14.33221    .149174
                         400.    .056718    .024624    .294668    .378486   1.001168    .010836    .007846   2897.109   57.94218
                          1.0        0.0        0.0        0.0        0.0
   6000      .006  711.489797 -16.650883 -694.83891 711.489797 -16.650883 -694.83891 -132457.61 419292.922 -286835.31        0.0
                          0.0        0.0 723.206291 -17.766774 -705.43952 -132463.44  419293.44   -286830. 740.973065 687.672744
                   -1428.6458  728.14068 678.188031 -1406.3287 -551750.53 706128.236 -154377.71 -.24848889 .444752032 -.19626314
                   .778286E-6 -.17156E-7 -.77178E-6        0.0    155.992   2.391605   2.137991   16.03234   14.33221    .149174
                         400.    .056718    .024624    .294668    .378486   1.001168    .010836    .007846   2897.109   57.94218
                          1.0        0.0        0.0        0.0        0.0
   6500     .0065  641.478812 110.569926 -752.04874 641.478812 110.569926 -752.04874 -194602.56 428073.738 -233471.18        0.0
                          0.0        0.0 652.194236 111.483243 -763.67748 -194607.89  428073.24 -233465.35 540.710992 875.160722
                   -1415.8717 530.908886 862.618664 -1393.5276  -622676.3 661544.913 -38868.613 -.30332516 .434559717 -.13123456
                   .669305E-6 .117534E-6 -.77265E-6        0.0    155.992   2.391605   2.137991   16.03234   14.33221    .149174
                         400.    .056718    .024624    .294668    .378486   1.001168    .010836    .007846   2897.109   57.94218
                          1.0        0.0        0.0        0.0        0.0
   7000      .007  555.671448 235.068674 -790.74012 555.671448 235.068674 -790.74012 -251955.75 426313.954 -174358.21        0.0
                          0.0        0.0 565.121107 237.989106 -803.11021 -251960.44 426312.457 -174352.02 327.132001 1041.09932
                   -1368.2313 320.602775  1025.8088 -1346.4116  -678269.7  600672.16 77597.5417 -.35069199 .413666825 -.06297483
                   .638609E-6 .259341E-6 -.81264E-6        0.0    155.992   2.391605   2.137991   16.03234   14.33221    .149174
                         400.    .056718    .024624    .294668    .378486   1.001168    .010836    .007846   2897.109   57.94218
                          1.0        0.0        0.0        0.0        0.0
   7500     .0075  456.182483 353.778793 -809.96128 456.182483 353.778793 -809.96128 -303104.95 414056.908 -110951.96        0.0
                          0.0        0.0 464.132814 358.634897 -822.76771 -303108.89 414054.446 -110945.55 105.497917 1181.40261
                   -1286.9005  102.40369 1163.74007 -1266.1438 -717161.86 525008.864 192152.996 -.38942371 .382588119 .006835587
                   .452026E-6  .36363E-6 -.81566E-6        0.0    155.992   2.391605   2.137991   16.03234   14.33221    .149174
                         400.    .056718    .024624    .294668    .378486   1.001168    .010836    .007846   2897.109   57.94218
                          1.0        0.0        0.0        0.0        0.0
   8000      .008  345.461887 463.777176 -809.23906 345.461887 463.777176 -809.23906 -346790.69   391604.4 -44813.707        0.0
                          0.0        0.0 351.717779 470.449029 -822.16681  -346793.8  391601.04 -44807.245 -118.73125 1292.61584
                   -1173.8846 -118.31529 1273.01624 -1154.7009 -738395.09 436418.107 301976.987 -.41856507 .342088104 .076476965
                   .358405E-6 .507837E-6 -.86625E-6        0.0    155.992   2.391605   2.137991   16.03234   14.33221    .149174
                         400.    .056718    .024624    .294668    .378486   1.001168    .010836    .007846   2897.109   57.94218
                          1.0        0.0        0.0        0.0        0.0
   8500     .0085    226.2321 562.357192 -788.58929   226.2321 562.357192 -788.58929 -381937.32 359509.303 22428.0145        0.0
                          0.0        0.0 230.644026 570.678283 -801.32231 -381939.48 359505.117 22434.3679 -340.03426 1372.00059
                   -1031.9663 -336.12509 1350.94648 -1014.8214 -741446.62 337081.289 404365.332 -.43740227 .293165887 .144236378
                   .231871E-6 .632642E-6 -.77923E-6        0.0    155.992   2.391605   2.137991   16.03234   14.33221    .149174
                         400.    .056718    .024624    .294668    .378486   1.001168    .010836    .007846   2897.109   57.94218
                          1.0        0.0        0.0        0.0        0.0
   9000      .009  101.431909 647.090013 -748.52192 101.431909 647.090013 -748.52192 -407679.37 318561.889 89117.4789        0.0
                          0.0        0.0 103.886005 656.858046 -760.74405 -407680.56 318556.985  89123.572 -552.97204  1417.6021
                   -864.63006  -545.6581 1395.61193 -849.95383 -726241.26  229444.41 496796.847 -.44546784 .237024293 .208443547
                   .999181E-7 .725356E-6 -.73999E-6        0.0    155.992   2.391605   2.137991   16.03234   14.33221    .149174
                         400.    .056718    .024624    .294668    .378486   1.001168    .010836    .007846   2897.109   57.94218
                          1.0        0.0        0.0        0.0        0.0
   9500     .0095  -25.864546 715.888685 -690.02414 -25.864546 715.888685 -690.02414   -423383. 269770.425 153612.577        0.0
                          0.0        0.0 -25.426323 726.861934 -701.43561 -423383.18 269764.922 153618.258 -752.28826 1428.29755
                   -676.00929 -741.75323 1405.91282 -664.15959 -693153.43 116157.849 576995.578 -.44256464 .175046434 .267518206
                   -.28068E-7 .749466E-6 -.75338E-6        0.0    155.992   2.391605   2.137991   16.03234   14.33221    .149174
                         400.    .056718    .024624    .294668    .378486   1.001168    .010836    .007846   2897.109   57.94218
                          1.0        0.0        0.0        0.0        0.0
  10000       .01  -152.52538 767.060415 -614.53504 -152.52538 767.060415 -614.53504 -428661.54 214336.317 214325.221        0.0
                          0.0        0.0 -154.11343 778.968512 -624.85509 -428660.71 214330.353 214330.352 -933.08194  1403.8236
                   -470.74166 -919.58579 1381.59545 -462.00966 -642997.85 11.0953469 642986.759 -.42876438 .108758525 .320005852
                   -.15616E-6 .787493E-6 -.63126E-6        0.0    155.992   2.391605   2.137991   16.03234   14.33221    .149174
                         400.    .056718    .024624    .294668    .378486   1.001168    .010836    .007846   2897.109   57.94218
                          1.0        0.0        0.0        0.0        0.0
  10500     .0105  -275.43039 799.344513 -523.91413 -275.43039 799.344513 -523.91413 -423385.01  153624.54 269760.471        0.0
                          0.0        0.0 -279.00555 811.894187 -532.88863 -423383.18 153618.258 269764.922 -1090.8997 1344.78282
                   -253.88308 -1074.7749 1323.25864 -248.48374 -577009.55 -116135.93 693145.483  -.4044067 .039792711 .364613985
                   -.31095E-6 .889889E-6  -.5789E-6        0.0    155.992   2.391605   2.137991   16.03234   14.33221    .149174
                         400.    .056718    .024624    .294668    .378486   1.001168    .010836    .007846   2897.109   57.94218
                          1.0        0.0        0.0        0.0        0.0
  11000      .011  -391.55258 811.945679  -420.3931 -391.55258 811.945679  -420.3931 -407683.33 89130.0113 318553.317        0.0
                          0.0        0.0 -397.02744 824.828248 -427.80081 -407680.56  89123.572 318556.985 -1221.8557 1252.62906
                    -30.77337 -1203.4983 1232.33878 -28.840529 -496813.34 -229423.31 726236.645 -.37009062 -.03015321 .400243828
                   -.41786E-6  .83521E-6 -.41735E-6        0.0    155.992   2.391605   2.137991   16.03234   14.33221    .149174
                         400.    .056718    .024624    .294668    .378486   1.001168    .010836    .007846   2897.109   57.94218
                          1.0        0.0        0.0        0.0        0.0
  11500     .0115  -498.03286 804.553772 -306.52091 -498.03286 804.553772 -306.52091 -381943.13 22440.8088 359502.325        0.0
                          0.0        0.0 -505.27377 817.452577  -312.1788 -381939.48 22434.3679 359505.117 -1322.7264 1129.63138
                   193.094972 -1302.5866 1111.07468 191.511957 -404383.94 -337061.52  741445.46 -.32666316 -.09935592 .426019083
                   -.52423E-6 .788016E-6 -.32058E-6        0.0    155.992   2.391605   2.137991   16.03234   14.33221    .149174
                         400.    .056718    .024624    .294668    .378486   1.001168    .010836    .007846   2897.109   57.94218
                          1.0        0.0        0.0        0.0        0.0
  12000      .012  -592.25167 777.351937 -185.10027 -592.25167 777.351937 -185.10027 -346798.23 -44800.962 391599.193        0.0
                          0.0        0.0 -601.08101 789.949734 -188.86872  -346793.8 -44807.245  391601.04 -1391.0307 978.818458
                   412.212285 -1369.6036 962.452204 407.151403 -301997.27 -436400.15 738397.424 -.27518971 -.16611339 .441303099
                   -.66648E-6 .787073E-6  -.2059E-6        0.0    155.992   2.391605   2.137991   16.03234   14.33221    .149174
                         400.    .056718    .024624    .294668    .378486   1.001168    .010836    .007846   2897.109   57.94218
                          1.0        0.0        0.0        0.0        0.0
  12500     .0125  -671.88399 731.007483 -59.123492 -671.88399 731.007483 -59.123492 -303114.01 -110939.58  414053.59        0.0
                          0.0        0.0 -682.08288  742.99331 -60.910434 -303108.89 -110945.55 414054.446 -1425.0762 803.903745
                   621.172442 -1402.8915 790.130975 612.760499 -192174.42 -524993.17 717167.596 -.21694069 -.22878034 .445721025
                   -.71625E-6 .807179E-6 -.62533E-7        0.0    155.992   2.391605   2.137991   16.03234   14.33221    .149174
                         400.    .056718    .024624    .294668    .378486   1.001168    .010836    .007846   2897.109   57.94218
                          1.0        0.0        0.0        0.0        0.0
  13000      .013  -734.97627 666.665183 68.3110857 -734.97627 666.665183 68.3110857  -251966.1 -174346.51  426312.61        0.0
                          0.0        0.0 -746.29165 677.742968 68.5486789 -251960.44 -174352.02 426312.457 -1424.0346 609.194289
                   814.840326 -1401.6415 598.354098 803.287355 -77619.598 -600659.12 678278.714 -.15335062 -.28581358 .439164198
                   -.75048E-6 .741876E-6 .654254E-7        0.0    155.992   2.391605   2.137991   16.03234   14.33221    .149174
                         400.    .056718    .024624    .294668    .378486   1.001168    .010836    .007846   2897.109   57.94218
                          1.0        0.0        0.0        0.0        0.0
  13500     .0135  -779.96933 585.906526 194.062804 -779.96933 585.906526 194.062804 -194613.97 -233460.43 428074.405        0.0
                          0.0        0.0 -792.12511 595.804752 196.320356 -194607.89 -233465.35  428073.24 -1387.9299 399.484396
                   988.445464 -1365.8759 391.843722 974.032134 38846.4635 -661534.84 622688.375 -.08598423  -.3358093 .421793533
                   -.83241E-6 .603121E-6 .200787E-6        0.0    155.992   2.391605   2.137991   16.03234   14.33221    .149174
                         400.    .056718    .024624    .294668    .378486   1.001168    .010836    .007846   2897.109   57.94218
                          1.0        0.0        0.0        0.0        0.0
  14000      .014  -805.75728  490.72109 315.036193 -805.75728  490.72109 315.036193 -132469.79 -286825.79 419295.583        0.0
                          0.0        0.0  -818.4532 499.195545 319.257652 -132463.44   -286830.  419293.44 -1317.6487 179.937893
                   1137.71085 -1296.4784 175.684897 1120.79348 154356.007 -706121.38 551765.372 -.01650003 -.37753658 .394036612
                    -.8983E-6 .526956E-6 .314467E-6        0.0    155.992   2.391605   2.137991   16.03234   14.33221    .149174
                         400.    .056718    .024624    .294668    .378486   1.001168    .010836    .007846   2897.109   57.94218
                          1.0        0.0        0.0        0.0        0.0
  14500     .0145  -811.70411 383.452106 428.252004 -811.70411 383.452106 428.252004 -67063.766 -333128.55 400192.316        0.0
                          0.0        0.0  -824.6272 390.293971 434.333228 -67057.308 -333131.94 400189.244 -1214.9212 -44.039256
                   1258.96043 -1195.1562 -44.799898 1239.95611 266064.784 -733320.87 467256.082 .053389104 -.40996699 .356577881
                   -.85463E-6 .411776E-6 .442844E-6        0.0    155.992   2.391605   2.137991   16.03234   14.33221    .149174
                         400.    .056718    .024624    .294668    .378486   1.001168    .010836    .007846   2897.109   57.94218
                          1.0        0.0        0.0        0.0        0.0
  % % % % % %   Suspended simulation;  plot data space exhausted;  SPY SPACE is required.   LIMBUF =  840000.
  % % % % % %   Suspended simulation;  plot data space exhausted;  SPY SPACE is required.   LIMBUF =  840000.
  +++  Time-sharing disabled.   Send  user-keyed interrupt to silence alarm.
   Current values.  INDBUF  INDBEG  LIMBUF  MFLUSH  NUMDCD  KCARD1  KCARD2
                    839994      50  840000    1000     230       1     231
Plot timespan now in memory (in sec) = 0.00000000E+00   1.49990000E-02
   ++++  Begin plot-data copy from memory to disk.   MFLUSH, INDBUF, N4, Tbeg,  Tend = 1001  839994       1  -1.00000E+00
1.00000E+19
  15000      .015   -797.6659 266.742175  530.92372  -797.6659 266.742175  530.92372 -6.4097542 -371228.58 371234.985        0.0
                          0.0        0.0 -810.49814  271.78305 538.715087 -.61533E-6 -371231.06  371231.06 -1082.2812 -266.93204
                   1349.21322 -1064.4081 -264.18154 1328.58962 371222.165 -742463.56 371241.395 .121964221 -.43230294 .310338718
                   -.89168E-6 .256983E-6 .521017E-6        0.0    155.992   2.391605   2.137991   16.03234   14.33221    .149174
                         400.    .056718    .024624    .294668    .378486   1.001168    .010836    .007846   2897.109   57.94218
                          1.0        0.0        0.0        0.0        0.0
  15500     .0155  -763.98382 143.462811 620.521006 -763.98382 143.462811 620.521006 67051.1065 -400187.72 333136.615        0.0
                          0.0        0.0 -776.40999 146.578972  629.83102 67057.3081 -400189.24 333131.936 -922.98896 -483.25205
                   1406.24101 -907.44663  -477.0582 1384.50482 467238.828 -733324.34 266085.509  .18753588 -.44399401 .256458131
                   -.85575E-6 .138196E-6 .603846E-6        0.0    155.992   2.391605   2.137991   16.03234   14.33221    .149174
                         400.    .056718    .024624    .294668    .378486   1.001168    .010836    .007846   2897.109   57.94218
                          1.0        0.0        0.0        0.0        0.0
  16000      .016   -711.4911 16.6515227  694.83958  -711.4911 16.6515227  694.83958 132457.611 -419292.92 286835.312        0.0
                          0.0        0.0 -723.20584  17.766519 705.439322 132463.443 -419293.44 286829.997 -740.97236  -687.6728
                   1428.64516 -728.14263 -678.18806 1406.33068 551750.535 -706128.24 154377.701 .248489732 -.44475245 .196262719
                    -.7784E-6 .165242E-7 .772532E-6        0.0    155.992   2.391605   2.137991   16.03234   14.33221    .149174
                         400.    .056718    .024624    .294668    .378486   1.001168    .010836    .007846   2897.109   57.94218
                          1.0        0.0        0.0        0.0        0.0
  16500     .0165  -641.47907 -110.56982 752.048892 -641.47907 -110.56982 752.048892 194602.554 -428073.73  233471.18        0.0
                          0.0        0.0 -652.19286 -111.48395 763.676806 194607.888 -428073.24 233465.353 -540.70891 -875.16075
                   1415.86966 -530.90925 -862.61871 1393.52796 622676.287 -661544.91 38868.6263   .3033249 -.43455959 .131234691
                   -.68359E-6 -.10898E-6 .835222E-6        0.0    155.992   2.391605   2.137991   16.03234   14.33221    .149174
                         400.    .056718    .024624    .294668    .378486   1.001168    .010836    .007846   2897.109   57.94218
                          1.0        0.0        0.0        0.0        0.0
  17000      .017  -555.67478 -235.06702 790.741795 -555.67478 -235.06702 790.741795 251955.745 -426313.95 174358.207        0.0
                          0.0        0.0 -565.12208 -237.98864 803.110726 251960.441 -426312.46 174352.016 -327.13344 -1041.0994
                   1368.23281 -320.60776 -1025.8088 1346.41657 678269.698 -600672.16 -77597.538 .350691978 -.41366682 .062974839
                   -.59975E-6 -.25063E-6 .850414E-6        0.0    155.992   2.391605   2.137991   16.03234   14.33221    .149174
                         400.    .056718    .024624    .294668    .378486   1.001168    .010836    .007846   2897.109   57.94218
                          1.0        0.0        0.0        0.0        0.0
  17500     .0175  -456.18173 -353.77919 809.960921 -456.18173 -353.77919 809.960921 303104.951 -414056.91 110951.957        0.0
                          0.0        0.0 -464.13672 -358.63296 822.769677 303108.891 -414054.45 110945.554 -105.50377 -1181.4026
                    1286.9064 -102.40255 -1163.7401 1266.14266 717161.858 -525008.86 -192152.99 .389423268  -.3825879 -.00683537
                   -.46336E-6 -.38576E-6 .792264E-6        0.0    155.992   2.391605   2.137991   16.03234   14.33221    .149174
                         400.    .056718    .024624    .294668    .378486   1.001168    .010836    .007846   2897.109   57.94218
                          1.0        0.0        0.0        0.0        0.0
  18000      .018  -345.45989 -463.77819 809.238085 -345.45989 -463.77819 809.238085 346790.704 -391604.41 44813.7016        0.0
                          0.0        0.0 -351.71942 -470.44823 822.167652 346793.795 -391601.04 44807.2448 118.728813 -1292.6159
                   1173.88707 118.318301 -1273.0163 1154.69798  738395.11 -436418.11   -301977. .418565899 -.34208852 -.07647738
                   -.38797E-6 -.46565E-6 .853674E-6        0.0    155.992   2.391605   2.137991   16.03234   14.33221    .149174
                         400.    .056718    .024624    .294668    .378486   1.001168    .010836    .007846   2897.109   57.94218
                          1.0        0.0        0.0        0.0        0.0
  18500     .0185  -226.23087 -562.35783   788.5887 -226.23087 -562.35783   788.5887 381937.316  -359509.3 -22428.013        0.0
                          0.0        0.0 -230.64258 -570.67903 801.321606 381939.485 -359505.12 -22434.368 340.036445 -1372.0006
                   1031.96419  336.12696 -1350.9465 1014.81957 741446.618 -337081.29 -404365.33 .437402388 -.29316595 -.14423644
                    -.2476E-6 -.62435E-6 .786677E-6        0.0    155.992   2.391605   2.137991   16.03234   14.33221    .149174
                         400.    .056718    .024624    .294668    .378486   1.001168    .010836    .007846   2897.109   57.94218
                          1.0        0.0        0.0        0.0        0.0
  19000      .019  -101.43194 -647.09004 748.521974 -101.43194 -647.09004 748.521974  407679.37 -318561.89  -89117.48        0.0
                          0.0        0.0 -103.88712 -656.85751  760.74463 407680.557 -318556.98 -89123.572 552.970395 -1417.6021
                   864.631748 545.658101  -1395.612  849.95391  726241.26 -229444.41 -496796.85 .445468097 -.23702442 -.20844368
                   -.10312E-6 -.66021E-6 .806001E-6        0.0    155.992   2.391605   2.137991   16.03234   14.33221    .149174
                         400.    .056718    .024624    .294668    .378486   1.001168    .010836    .007846   2897.109   57.94218
                          1.0        0.0        0.0        0.0        0.0
  19500     .0195  25.8651568 -715.88902 690.023858 25.8651568 -715.88902 690.023858 423382.995 -269770.42 -153612.57        0.0
                          0.0        0.0 25.4263796   -726.862 701.435617  423383.18 -269764.92 -153618.26 752.288376 -1428.2976
                   676.009237 741.754172 -1405.9129 664.158702 693153.417 -116157.85 -576995.57 .442564442 -.17504634 -.26751811
                   .282136E-7 -.73607E-6 .764674E-6        0.0    155.992   2.391605   2.137991   16.03234   14.33221    .149174
                         400.    .056718    .024624    .294668    .378486   1.001168    .010836    .007846   2897.109   57.94218
                          1.0        0.0        0.0        0.0        0.0
  20000       .02  152.524471    -767.06 614.535524 152.524471    -767.06 614.535524 428661.536 -214336.32 -214325.22        0.0
                          0.0        0.0 154.112052 -778.96784  624.85579 428660.705 -214330.35 -214330.35 933.079895 -1403.8236
                   470.743738 919.584466 -1381.5955 462.011054 642997.852 -11.095352 -642986.76 .428764436 -.10875855 -.32000588
                   .160332E-6  -.7895E-6  .62905E-6        0.0    155.992   2.391605   2.137991   16.03234   14.33221    .149174
                         400.    .056718    .024624    .294668    .378486   1.001168    .010836    .007846   2897.109   57.94218
                          1.0        0.0        0.0        0.0        0.0
  20500     .0205  275.431246 -799.34496 523.913715 275.431246 -799.34496 523.913715 423385.004 -153624.54 -269760.47        0.0
                          0.0        0.0 279.006402 -811.89464 532.888237  423383.18 -153618.26 -269764.92 1090.90104 -1344.7829
                   253.881835 1074.77621 -1323.2587 248.482468 577009.541 116135.931 -693145.47 .404406503 -.03979262 -.36461389
                   .269154E-6 -.78244E-6 .570173E-6        0.0    155.992   2.391605   2.137991   16.03234   14.33221    .149174
                         400.    .056718    .024624    .294668    .378486   1.001168    .010836    .007846   2897.109   57.94218
                          1.0        0.0        0.0        0.0        0.0
  21000      .021  391.551566  -811.9452 420.393633 391.551566  -811.9452 420.393633 407683.329 -89130.012 -318553.32        0.0
                          0.0        0.0 397.027897 -824.82849 427.800591 407680.557 -89123.572 -318556.98 1221.85639 -1252.6291
                   30.7726936 1203.49677 -1232.3388 28.8420666  496813.34 229423.305 -726236.65 .370089956 .030153541  -.4002435
                   .435361E-6 -.81578E-6 .437314E-6        0.0    155.992   2.391605   2.137991   16.03234   14.33221    .149174
[...]
                         400.    .056718    .024624    .294668    .378486   1.001168    .010836    .007846   2897.109   57.94218
                          1.0        0.0        0.0        0.0        0.0
 113000      .113  -267648.61 -163864.92 431513.525 -267648.61 -163864.92 431513.525 -267648.61 -163864.92 431513.525        0.0
                          0.0        0.0 -292634.88 -146491.74 439126.622 -251960.44 -174352.02 426312.457 -146143.14 -585618.36
                   731761.501 -103783.69 -595378.44 699162.134 -103783.69 -595378.44 699162.134 158.493896 -205.94183 47.4479339
                   -.28072E-3 -.16961E-3 .450343E-3        0.0    155.992   2.391605   2.137991   16.03234   14.33221    .149174
                         400.    .056718    .024624    .294668    .378486   1.001168    .010836    .007846   2897.109   57.94218
                          1.0        0.0        0.0        0.0        0.0
 113500     .1135  -178629.86 -260683.83 439313.687 -178629.86 -260683.83 439313.687 -178629.86 -260683.83 439313.687        0.0
                          0.0        0.0 -213730.84 -235164.28 448895.113 -194607.89 -233465.35  428073.24 21433.4423 -684059.39
                   662625.948 82053.9639 -699997.51 617943.549 82053.9653 -699997.51 617943.548 351.959238 -340.26097 -11.698265
                   -.19666E-3 -.29249E-3 .460058E-3        0.0    155.992   2.391605   2.137991   16.03234   14.33221    .149174
                         400.    .056718    .024624    .294668    .378486   1.001168    .010836    .007846   2897.109   57.94218
                          1.0        0.0        0.0        0.0        0.0
 114000      .114    -126255. -293150.93 419405.932   -126255. -293150.93 419405.932   -126255. -293150.94 419405.932        0.0
                          0.0        0.0 -93277.592 -332279.51 425557.098 -132463.44   -286830.  419293.44 239001.914  -757836.6
                    518834.69 166895.938 -712556.87 545660.929 166895.939 -712556.87 545660.929 334.621378 -269.08834 -65.533033
                   -.13747E-3 -.27578E-3  .45687E-3        0.0    155.992   2.391605   2.137991   16.03234   14.33221    .149174
                         400.    .056718    .024624    .294668    .378486   1.001168    .010836    .007846   2897.109   57.94218
                          1.0        0.0        0.0        0.0        0.0
 114500     .1145  -45938.686 -356221.11 402159.794 -45938.686 -356221.11 402159.794 -45938.685 -356221.11 402159.794        0.0
                          0.0        0.0 -30845.424 -372077.42 402922.847 -67057.308 -333131.94 400189.244 341231.999 -775000.27
                   433768.271 310282.423  -758380.9  448098.48 310282.424  -758380.9 448098.479 203.298407 -102.06251  -101.2359
                   -.44574E-4 -.36505E-3 .416905E-3        0.0    155.992   2.391605   2.137991   16.03234   14.33221    .149174
                         400.    .056718    .024624    .294668    .378486   1.001168    .010836    .007846   2897.109   57.94218
                          1.0        0.0        0.0        0.0        0.0
 115000      .115  -2502.1136 -371488.02 373990.133 -2502.1136 -371488.02 373990.133 -2502.1134 -371488.02 373990.132        0.0
                          0.0        0.0  12447.106 -377396.33 364949.221 .127058E-4 -371231.06  371231.06 389843.433 -742345.55
                   352502.115 368985.905 -745478.15 376492.246 368985.906 -745478.15 376492.246 129.095058     -15.99 -113.10506
                   -.26354E-5 -.40029E-3 .395656E-3        0.0    155.992   2.391605   2.137991   16.03234   14.33221    .149174
                         400.    .056718    .024624    .294668    .378486   1.001168    .010836    .007846   2897.109   57.94218
                          1.0        0.0        0.0        0.0        0.0
 115500     .1155  69523.6459 -406441.83 336918.179 69523.6459 -406441.83 336918.179 69523.6462 -406441.83 336918.179        0.0
                          0.0        0.0 26846.2159 -372693.01 345846.794 67057.3081 -400189.24 333131.936 399539.226  -718539.8
                   319000.578 475965.471   -743360. 267394.533 475965.471   -743360. 267394.533 133.744956 -9.8300428 -123.91491
                   .739276E-4 -.40868E-3  .37843E-3        0.0    155.992   2.391605   2.137991   16.03234   14.33221    .149174
                         400.    .056718    .024624    .294668    .378486   1.001168    .010836    .007846   2897.109   57.94218
                          1.0        0.0        0.0        0.0        0.0
 116000      .116  114706.322 -405093.48 290387.155 114706.322 -405093.48 290387.155 114706.323 -405093.48 290387.155        0.0
                          0.0        0.0 104018.465 -407689.15 303670.683 132463.443 -419293.44 286829.997 511707.613 -711359.83
                   199652.217   519799.8 -695480.63 175680.833 519799.801 -695480.63 175680.832 320.767388 -162.08047 -158.68692
                   .124921E-3 -.45384E-3 .285238E-3        0.0    155.992   2.391605   2.137991   16.03234   14.33221    .149174
                         400.    .056718    .024624    .294668    .378486   1.001168    .010836    .007846   2897.109   57.94218
                          1.0        0.0        0.0        0.0        0.0
 116500     .1165  198448.592 -435917.13 237468.534 198448.592 -435917.13 237468.534 198448.592 -435917.13 237468.533        0.0
                          0.0        0.0 199803.948 -446164.51 246360.564 194607.888 -428073.24 233465.353 645968.459 -692525.08
                   46556.6165 634365.717 -673385.66 39019.9418 634365.718 -673385.66 39019.9407 327.395579 -123.81782 -203.57776
                   .187657E-3 -.42379E-3 .236124E-3        0.0    155.992   2.391605   2.137991   16.03234   14.33221    .149174
                         400.    .056718    .024624    .294668    .378486   1.001168    .010836    .007846   2897.109   57.94218
                          1.0        0.0        0.0        0.0        0.0
 117000      .117  268668.643 -445545.97 176877.327 268668.643 -445545.97 176877.327 268668.643 -445545.97 176877.326        0.0
                          0.0        0.0  294251.95 -471339.12 177087.171 251960.441 -426312.46 174352.016 765591.071 -648426.29
                   -117164.78 714214.612  -622423.3 -91791.316 714214.613  -622423.3 -91791.317 279.339001 -44.702967 -234.63603
                   .269777E-3 -.48706E-3 .188142E-3        0.0    155.992   2.391605   2.137991   16.03234   14.33221    .149174
                         400.    .056718    .024624    .294668    .378486   1.001168    .010836    .007846   2897.109   57.94218
                          1.0        0.0        0.0        0.0        0.0
 117500     .1175  295942.088 -403251.66 107309.572 295942.088 -403251.66 107309.572 295942.089 -403251.66 107309.571        0.0
                          0.0        0.0 335467.593 -435593.82 100126.225 303108.891 -414054.45 110945.554 771061.411 -535720.04
                   -235341.37 699193.749 -510561.23 -188632.52 699193.748 -510561.23 -188632.52 77.0737988 155.788078 -232.86188
                   .290418E-3 -.44183E-3 .107795E-3        0.0    155.992   2.391605   2.137991   16.03234   14.33221    .149174
                         400.    .056718    .024624    .294668    .378486   1.001168    .010836    .007846   2897.109   57.94218
                          1.0        0.0        0.0        0.0        0.0
 118000      .118  350019.973 -397165.81 47145.8345 350019.973 -397165.81 47145.8345 350019.973 -397165.81  47145.834        0.0
                          0.0        0.0 324879.192 -370528.61 45649.4229 346793.795 -391601.04 44807.2447 695407.807 -416178.04
                   -279229.77 747185.781 -444311.64 -302874.14 747185.781 -444311.64 -302874.14 21.4256785 201.678014 -223.10369
                   .383915E-3 -.42609E-3 .494495E-4        0.0    155.992   2.391605   2.137991   16.03234   14.33221    .149174
                         400.    .056718    .024624    .294668    .378486   1.001168    .010836    .007846   2897.109   57.94218
                          1.0        0.0        0.0        0.0        0.0
 118500     .1185  355554.048 -338190.45 -17363.595 355554.048 -338190.45 -17363.595 355554.048 -338190.45 -17363.595        0.0
                          0.0        0.0 355665.646 -335218.25 -20447.394 381939.485 -359505.12 -22434.368 690883.898 -314770.86
                   -376113.04   693744.5 -320826.86 -372917.64   693744.5 -320826.86 -372917.64 87.5797581 120.231934 -207.81169
                   .360063E-3 -.33497E-3  -.1785E-4        0.0    155.992   2.391605   2.137991   16.03234   14.33221    .149174
                         400.    .056718    .024624    .294668    .378486   1.001168    .010836    .007846   2897.109   57.94218
                          1.0        0.0        0.0        0.0        0.0
 119000      .119  413131.616 -330120.58 -83011.038 413131.616 -330120.58 -83011.038 413131.617 -330120.58 -83011.038        0.0
                          0.0        0.0 369725.377 -287253.64 -82471.741 407680.557 -318556.98 -89123.572 656979.013 -204781.89
                   -452197.12 743252.194 -247109.54 -496142.65 743252.195 -247109.54 -496142.66 174.086693 52.4055915 -226.49229
                    .45035E-3 -.34513E-3 -.90666E-4        0.0    155.992   2.391605   2.137991   16.03234   14.33221    .149174
                         400.    .056718    .024624    .294668    .378486   1.001168    .010836    .007846   2897.109   57.94218
                          1.0        0.0        0.0        0.0        0.0
 119500     .1195  416004.263 -258431.59 -157572.68 416004.263 -258431.59 -157572.68 416004.264 -258431.59 -157572.68        0.0
                          0.0        0.0 448603.206 -291455.75 -157147.45  423383.18 -269764.92 -153618.26 740058.959  -134308.3
                   -605750.66 674435.849 -100858.91 -573576.94 674435.849 -100858.91 -573576.94 158.582605 77.5121767 -236.09478
                   .455938E-3 -.26235E-3 -.16448E-3        0.0    155.992   2.391605   2.137991   16.03234   14.33221    .149174
                         400.    .056718    .024624    .294668    .378486   1.001168    .010836    .007846   2897.109   57.94218
                          1.0        0.0        0.0        0.0        0.0
  % % % % % %   Suspended simulation;  plot data space exhausted;  SPY SPACE is required.   LIMBUF =  840000.
  % % % % % %   Suspended simulation;  plot data space exhausted;  SPY SPACE is required.   LIMBUF =  840000.
  +++  Time-sharing disabled.   Send  user-keyed interrupt to silence alarm.
   Current values.  INDBUF  INDBEG  LIMBUF  MFLUSH  NUMDCD  KCARD1  KCARD2
                    839994      50  840000    1007     230       1     231
Plot timespan now in memory (in sec) = 1.04985997E-01   1.19985000E-01
   ++++  Begin plot-data copy from memory to disk.   MFLUSH, INDBUF, N4, Tbeg,  Tend = 1008  839994       1  -1.00000E+00
1.00000E+19
 120000       .12  440326.679  -223911.7 -216414.98 440326.679  -223911.7 -216414.98 440326.679  -223911.7 -216414.98        0.0
                          0.0        0.0 472264.145 -252662.45 -219601.69 428660.705 -214330.35 -214330.35 724926.599 -33060.763
                   -691865.84 664238.376  -7496.715 -656741.66 664238.376  -7496.714 -656741.66 -27.559177  245.04784 -217.48866
                    .44317E-3 -.23174E-3 -.24055E-3        0.0    155.992   2.391605   2.137991   16.03234   14.33221    .149174
                         400.    .056718    .024624    .294668    .378486   1.001168    .010836    .007846   2897.109   57.94218
                          1.0        0.0        0.0        0.0        0.0

Extrema of output variables follow.   Order and column positioning are the same as for the preceding time-step loop output.
Variable maxima :  466611.033 464022.461 441883.022 466611.033 464022.461 441883.022 466611.033 464022.461 441883.022        0.0
                          0.0        0.0 527717.634 529052.116 451309.259 428660.705 428660.703 428660.703 964271.121 887194.363
                   878996.614 875977.618 798915.277 785860.761 949422.207 798915.276 785860.761 508.893092 493.157523 288.881615
                   .520039E-3 .522005E-3 .503331E-3        0.0    155.992   2.391605   2.137991   16.03234   14.33221    .149174
                         400.    .056718    .024624    .294668    .378486   1.001168    .010836    .007846   2897.109   57.94218
                          1.0        0.0        0.0        0.0        0.0
Times of maxima :     .119813    .065807    .113265    .119813    .065807    .113265    .119813    .065807    .113265        0.0
                          0.0        0.0    .080766    .065982    .093491        0.0    .006667    .113333    .078212    .065248
                      .071332    .059028    .085315     .07121    .057911    .085315     .07121    .074627    .081543    .068088
                      .080408    .065816    .073718        0.0        0.0        0.0        0.0        0.0        0.0        0.0
                          0.0        0.0        0.0        0.0        0.0        0.0        0.0        0.0        0.0        0.0
                          0.0        0.0        0.0        0.0        0.0
Variable minima :    -459602. -462457.65 -440070.94   -459602. -462457.65 -440070.94   -459602. -540772.12 -446002.98        0.0
                          0.0        0.0 -529686.02 -522011.22 -451104.27 -428660.71  -428660.7  -428660.7 -.102142E7 -860708.29
                   -849105.25 -851029.95 -811159.38  -793535.2 -851029.95 -811159.38  -793535.2 -489.76588 -576.74488  -281.2246
                   -.51761E-3 -.52126E-3 -.49898E-3        0.0    155.992   2.391605   2.137991   16.03234   14.33221    .149174
                         400.    .056718    .024624    .294668    .378486   1.001168    .010836    .007846   2897.109   57.94218
                          1.0        0.0        0.0        0.0        0.0
Times of minima :     .110233    .117197     .10321    .110233    .117197     .10321    .110233    .057909    .063566        0.0
                          0.0        0.0    .068613    .075559    .103768        .01    .016667    .103333    .068611    .075406
                      .080949    .068239     .07501    .081299    .068239     .07501    .081299    .065346    .057095    .059108
                      .090754    .117207    .103521        0.0        0.0        0.0        0.0        0.0        0.0        0.0
                          0.0        0.0        0.0        0.0        0.0        0.0        0.0        0.0        0.0        0.0
                          0.0        0.0        0.0        0.0        0.0

Blank card terminating all plot cards.            |BLANK PLOT

Memory storage figures for the preceding, now-completed data case.  -------------------------------  Present   Program
A value of  "-9999"  indicates that no figure is available.         28-Feb-22  19:06:48              figure     limit  (name)
     Size List 1.   Number of electric network nodes.                                                   37      6000  (LBUS)
     Size List 2.   Number of electric network branches.                                                39     10000  (LBRNCH)
     Size List 3.   Number of data values in R, L, C tables.                                            45    192000  (LDATA)
     Size List 4.   Number of electric network sources.                                                  3       900  (LEXCT)
     Size List 5.   Storage for [Y] and triangularized [Y].   No. times =    3     Factors =    66     189    420000  (LYMAT)
     Size List 6.   Number of entries in switch table.                  No. flops = 18                  21      1200  (LSWTCH)
     Size List 7.   Number of distinct ALPHANUMERIC data names plus program SPY variables.              25     15000  (LSIZE7)
     Size List 8.   History points of distributed lines.                                              1912    120000  (LPAST)
     Size List 9.   Number of nonlinear elements.                                                        0      2250  (LNONL)
     Size List 10.  Points of nonlinear characteristics.                                                 0      3800  (LCHAR)
     Size List 11.  Number of Type-59 S.M. outputs.                                                      0       720  (LSMOUT)
     Size List 12.  Total number of EMTP output variables.                                              55      2000  (LSIZ12)
     Size List 13.  Working space for batch/SPY plotting.                                            -9999     72800  (LSIZ13)
     Size List 14.  S.M./U.M. connections to TACS.                                                   -9999       510  (LBSTAC)
     Size List 15.  Character storage in bytes for MODELS.                                            3298     90000  (LCTACS)
     Size List 16.  Total number of Type-59 S.M. masses.                                                 0       800  (LIMASS)
     Size List 17.  Number of Type-59 Synchronous machines.                                              0        90  (LSYN)
     Size List 18.  Branch and switch power/energy outputs.                                              0       254  (MAXPE)
     Size List 19.  Total floating-point TACS table space.                                              23    120000  (LTACST)
     Size List 20.  Non-copied recursive convolution data.                                               0    100000  (LFSEM)
     Size List 21.  Total modal/phase [T] matrix storage.                                                9      3000  (LFD)
     Size List 22.  Total recursive convolution history.                                                 0     15000  (LHIST)
     Size List 23.  Giant vectors for renumbering, phasors;  also extrema accumulation.                  93    192000  (LSIZ23)
     Size List 24.  Peak phases of compensation for data.                                                0       120  (LCOMP)
     Size List 25.  Total table space for all U.M usage.                                             -9999     45000  (LSPCUM)
     Size List 26.  Square of max number of coupled phases.                                              9    260000  (LSIZ26)
     Size List 27.  Maximum number of MODELS top variables.                                             44       600  (LSIZ27)
     Size List 28.  MODELS.  Total work space is divided into INTEGER and REAL.  1st, REAL:           1780    210000  (LRTACS)
                             Second  and last,  statistics for INTEGER work space.                    6838         0  (LITACS)
     Size List 29.  RAM disk used by "TAPSAV" table saving (limit is "LABCOM" size LTLABL).          -9999       600  (LSIZ29)
     Size List 30.  Taku Noda frequency-dependent circuits.                                              0        19  (LSIZ30)
Timing figures characterizing central processor (CP) solution speed.  ----------------------------   CP sec  Wait sec  Real sec
     Data input time (through blank card ending branches) ....                                       0.000     0.000     0.000
     Node renumbering and phasor solution  ....                                                      0.016     0.000     0.016
     After phasor solution, but before time-step loop  ....                                          0.000     0.000     0.000
     Integration of equations (time-step loop)  ....                                                 0.922     0.000     0.922
     Plotting or STATISTICS termination overlays ....                                                0.000     0.000     0.000
                                                                                                    ---------------------------
                                                                                          Totals      0.938     0.000     0.938

