   ---   236   cards of disk file read into card cache cells  1   onward.
 Comment card is ignored.      |C   LBUS  LBRNCH   LDATA   LEXCT   LYMAT  LSWTCH
 Limit CIDEAL cards =   200    |CARDS        200 { Limit of CIDEAL will be 2 mor
 1st card (Lists  1-10).       |    6000   10000  192000     900  420000    120
 Comment card is ignored.      |C LSMOUT  LSIZ12  LSIZ13  LBSTAC  LCTACS  LIMASS
 2nd card (Lists 11-20).       |     720    2000   72800     510   90000     80
 Comment card is ignored.      |C    LFD   LHIST  LSIZ23   NCOMP  LSPCUM  LSIZ26
 3rd card (Lists 21-30).       |    3000   15000  192000     120   45000  26000
 4th card (Lists 31-32).       |     200     300     { Optional card for Lists
 Comment card is ignored.      |C  LWORK  LMARTI
 Supplemental offsets.         |  840000     742
 <===> Done with  "/"-card sorting by data class.    Remember that the source file appears different from interpreted input data.
Alternative Transients Program (ATP),  GNU Linux or DOS.  All rights reserved by Can/Am user group of Portland, Oregon, USA.
 Date (dd-mth-yy) and time of day (hh.mm.ss) = 28-Feb-22  19:11:17   Name of disk plot file is  pdraw6.3\bernal\energizacion517.pl4
Consult the 860-page ATP Rule Book of the Can/Am EMTP User Group in Portland,  Oregon, USA.  Source code date is 12 August 2008.
Total size of LABCOM tables = 10913436 INTEGER words.  31 VARDIM  List Sizes follow:  6002  10K  192K  900  420K  1200  15K
  120K  2250  3800  720  2K  72800  510  90K  800  90  254  120K  100K  3K  15K  192K  120  45K  260K  600  210K  1100  60  200
--------------------------------------------------+--------------------------------------------------------------------------------
Descriptive interpretation of input data cards.   |  Input data card images are shown below, all 80 columns, character by character
                                                  0         1         2         3         4         5         6         7         8
                                                  012345678901234567890123456789012345678901234567890123456789012345678901234567890
--------------------------------------------------+--------------------------------------------------------------------------------
Comment card.   NUMDCD = 1.                       |C data:C:\ATP\ATPDRAW6.3\BERNAL\ENERGIZACION517.ATP
Marker card preceding new EMTP data case.         |BEGIN NEW DATA CASE
Comment card.   NUMDCD = 3.                       |C --------------------------------------------------------
Comment card.   NUMDCD = 4.                       |C Generated by ATPDRAW  febrero, lunes 28, 2022
Comment card.   NUMDCD = 5.                       |C A Bonneville Power Administration program
Comment card.   NUMDCD = 6.                       |C by H. K. Høidalen at SEfAS/NTNU - NORWAY 1994-2016
Comment card.   NUMDCD = 7.                       |C --------------------------------------------------------
Comment card.   NUMDCD = 8.                       |C  dT  >< Tmax >< Xopt >< Copt ><Epsiln>
Misc. data.     1.000E-06   1.200E-01   5.000E+01 |   1.E-6     .12     50.
Misc. data.    500    1  0  1  1  0  0  0  0  0   |     500       1       0       1       1       0       0       0       0
  ///  Warning.  Nonzero XOPT or COPT differs from the power frequency of  6.00000000E+01  Hz.   Did the user really want this?
No TACS data,  but MODELS data begins (next).     |MODELS
      Another ordinary MODELS data card.          |OUTPUT
      Another ordinary MODELS data card.          |  AnVol
      Another ordinary MODELS data card.          |  LONG
      Another ordinary MODELS data card.          |  R0F
      Another ordinary MODELS data card.          |  R1F
      Another ordinary MODELS data card.          |  X0F
      Another ordinary MODELS data card.          |  X1F
      Another ordinary MODELS data card.          |  RDIVX
      Another ordinary MODELS data card.          |  RINSER
      Another ordinary MODELS data card.          |  CLOSE1
      Another ordinary MODELS data card.          |  RPpos
      Another ordinary MODELS data card.          |  RPcero
      Another ordinary MODELS data card.          |  LPpos
      Another ordinary MODELS data card.          |  LPcero
      Another ordinary MODELS data card.          |  CPpos
      Another ordinary MODELS data card.          |  CPcero
      Another ordinary MODELS data card.          |  Xp
      Another ordinary MODELS data card.          |  CR
      Another ordinary MODELS data card.          |  SIMET
      Another ordinary MODELS data card.          |  ENC1
      Another ordinary MODELS data card.          |  ENC2
      Another ordinary MODELS data card.          |  ENC1AS
      Another ordinary MODELS data card.          |  ENC2AS
      Another ordinary MODELS data card.          |MODEL DEFAULT
      Another ordinary MODELS data card.          |DATA AnVol,LONG,R0F,R1F,X0F,X1F,RDIVX,RINSER,CLOSE1,RPpos,RPcero,LPpos,LPcero
      Another ordinary MODELS data card.          |OUTPUT o1,o2,o3, o4, o5, o6, o7, o8, o9, o10, o11, o12, o13
      Another ordinary MODELS data card.          |VAR o1,o2,o3, o4, o5, o6, o7, o8, o9, o10, o11, o12, o13
      Another ordinary MODELS data card.          |INIT
      Another ordinary MODELS data card.          |  o1:=AnVol
      Another ordinary MODELS data card.          |  o2:=LONG
      Another ordinary MODELS data card.          |  o3:=R0F
      Another ordinary MODELS data card.          |  o4:=R1F
      Another ordinary MODELS data card.          |  o5:=X0F
      Another ordinary MODELS data card.          |  O6:=X1F
      Another ordinary MODELS data card.          |  o7:=RDIVX
      Another ordinary MODELS data card.          |  o8:=RINSER
      Another ordinary MODELS data card.          |  o9:=CLOSE1
      Another ordinary MODELS data card.          |  o10:=RPpos
      Another ordinary MODELS data card.          |  o11:=RPcero
      Another ordinary MODELS data card.          |  o12:=LPpos
      Another ordinary MODELS data card.          |  o13:=LPcero
      Another ordinary MODELS data card.          |
      Another ordinary MODELS data card.          |ENDINIT
      Another ordinary MODELS data card.          |EXEC
      Another ordinary MODELS data card.          |ENDEXEC
      Another ordinary MODELS data card.          |ENDMODEL
      Another ordinary MODELS data card.          |MODEL DEFAULT1
      Another ordinary MODELS data card.          |DATA CPpos,CPcero,Xp,CR,SIMET,ENC1,ENC2,ENC1AS,ENC2AS
      Another ordinary MODELS data card.          |OUTPUT o1, o2, o3, o4, o5, o6, o7, o8, o9
      Another ordinary MODELS data card.          |VAR o1, o2, o3, o4, o5, o6, o7, o8, o9
      Another ordinary MODELS data card.          |INIT
      Another ordinary MODELS data card.          |  o1:=CPpos
      Another ordinary MODELS data card.          |  o2:=CPcero
      Another ordinary MODELS data card.          |  o3:=Xp
      Another ordinary MODELS data card.          |  o4:=CR
      Another ordinary MODELS data card.          |  o5:=SIMET
      Another ordinary MODELS data card.          |  o6:=ENC1
      Another ordinary MODELS data card.          |  o7:=ENC2
      Another ordinary MODELS data card.          |  o8:=ENC1AS
      Another ordinary MODELS data card.          |  o9:=ENC2AS
      Another ordinary MODELS data card.          |
      Another ordinary MODELS data card.          |ENDINIT
      Another ordinary MODELS data card.          |EXEC
      Another ordinary MODELS data card.          |ENDEXEC
      Another ordinary MODELS data card.          |ENDMODEL
      Another ordinary MODELS data card.          |USE DEFAULT AS DEFAULT
      Another ordinary MODELS data card.          |DATA
      Another ordinary MODELS data card.          |  AnVol:=      0.0
      Another ordinary MODELS data card.          |  LONG:=  89.6356
      Another ordinary MODELS data card.          |  R0F:= 2.880535
      Another ordinary MODELS data card.          |  R1F:= 2.460473
      Another ordinary MODELS data card.          |  X0F:= 11.79676
      Another ordinary MODELS data card.          |  X1F:= 10.07646
      Another ordinary MODELS data card.          |  RDIVX:=  0.24418
      Another ordinary MODELS data card.          |  RINSER:=     360.
      Another ordinary MODELS data card.          |  CLOSE1:= 0.053892
      Another ordinary MODELS data card.          |  RPpos:= 0.021575
      Another ordinary MODELS data card.          |  RPcero:= 0.361274
      Another ordinary MODELS data card.          |  LPpos:= 0.402276
      Another ordinary MODELS data card.          |  LPcero:= 0.797745
      Another ordinary MODELS data card.          |OUTPUT
      Another ordinary MODELS data card.          |  AnVol:=o1
      Another ordinary MODELS data card.          |  LONG:=o2
      Another ordinary MODELS data card.          |  R0F:=o3
      Another ordinary MODELS data card.          |  R1F:=o4
      Another ordinary MODELS data card.          |  X0F:=o5
      Another ordinary MODELS data card.          |  X1F:=o6
      Another ordinary MODELS data card.          |  RDIVX:=o7
      Another ordinary MODELS data card.          |  RINSER:=o8
      Another ordinary MODELS data card.          |  CLOSE1:=o9
      Another ordinary MODELS data card.          |  RPpos:=o10
      Another ordinary MODELS data card.          |  RPcero:=o11
      Another ordinary MODELS data card.          |  LPpos:=o12
      Another ordinary MODELS data card.          |  LPcero:=o13
      Another ordinary MODELS data card.          |ENDUSE
      Another ordinary MODELS data card.          |USE DEFAULT1 AS DEF
      Another ordinary MODELS data card.          |DATA
      Another ordinary MODELS data card.          |  CPpos:= 0.015382
      Another ordinary MODELS data card.          |  CPcero:= 0.008131
      Another ordinary MODELS data card.          |  Xp:= 3551.671
      Another ordinary MODELS data card.          |  CR:= 71.03342
      Another ordinary MODELS data card.          |  SIMET:=      0.0
      Another ordinary MODELS data card.          |  ENC1:=      0.0
      Another ordinary MODELS data card.          |  ENC2:=      0.0
      Another ordinary MODELS data card.          |  ENC1AS:=      0.0
      Another ordinary MODELS data card.          |  ENC2AS:=      0.0
      Another ordinary MODELS data card.          |OUTPUT
      Another ordinary MODELS data card.          |  CPpos:=o1
      Another ordinary MODELS data card.          |  CPcero:=o2
      Another ordinary MODELS data card.          |  Xp:=o3
      Another ordinary MODELS data card.          |  CR:=o4
      Another ordinary MODELS data card.          |  SIMET:=o5
      Another ordinary MODELS data card.          |  ENC1:=o6
      Another ordinary MODELS data card.          |  ENC2:=o7
      Another ordinary MODELS data card.          |  ENC1AS:=o8
      Another ordinary MODELS data card.          |  ENC2AS:=o9
      Another ordinary MODELS data card.          |ENDUSE
      Another ordinary MODELS data card.          |RECORD
      Another ordinary MODELS data card.          |  DEFAULT.o1 AS AnVOL
      Another ordinary MODELS data card.          |  DEFAULT.o2 AS LONG
      Another ordinary MODELS data card.          |  DEFAULT.o3 AS R0F
      Another ordinary MODELS data card.          |  DEFAULT.o4 AS R1F
      Another ordinary MODELS data card.          |  DEFAULT.o5 AS X0F
      Another ordinary MODELS data card.          |  DEFAULT.o6 AS X1F
      Another ordinary MODELS data card.          |  DEFAULT.o7 AS RDIVX
      Another ordinary MODELS data card.          |  DEFAULT.o8 AS RINSER
      Another ordinary MODELS data card.          |  DEFAULT.o9 AS CLOSE1
      Another ordinary MODELS data card.          |  DEFAULT.o10 AS RPpos
      Another ordinary MODELS data card.          |  DEFAULT.o11 AS RPcero
      Another ordinary MODELS data card.          |  DEFAULT.o12 AS LPpos
      Another ordinary MODELS data card.          |  DEFAULT.o13 AS LPcero
      Another ordinary MODELS data card.          |  DEF.o1 AS CPpos
      Another ordinary MODELS data card.          |  DEF.o2 AS CPcero
      Another ordinary MODELS data card.          |  DEF.o3 AS Xp
      Another ordinary MODELS data card.          |  DEF.o4 AS CR
      Another ordinary MODELS data card.          |  DEF.o5 AS SIMET
      Another ordinary MODELS data card.          |  DEF.o6 AS ENC1
      Another ordinary MODELS data card.          |  DEF.o7 AS ENC2
      Another ordinary MODELS data card.          |  DEF.o8 AS ENC1AS
      Another ordinary MODELS data card.          |  DEF.o9 AS ENC2AS
Termination of data for Laurent Dube`s MODELS.    |ENDMODELS
Comment card.   NUMDCD = 153.                     |C        1         2         3         4         5         6         7         8
Comment card.   NUMDCD = 154.                     |C 345678901234567890123456789012345678901234567890123456789012345678901234567890
Optional blank card follows last of MODELS data.  |BLANK MODELS
Comment card.   NUMDCD = 156.                     |C < n1 >< n2 ><ref1><ref2>< R  >< L  >< C  >
Comment card.   NUMDCD = 157.                     |C < n1 >< n2 ><ref1><ref2>< R  >< A  >< B  ><Leng><><>0
1st of coupled R-L.   2.88050E+00  3.75503E-02    |51IFUENASB1A              2.880511.796759408
2nd coil. 2.461E+00 3.207E-02 0.000E+00 0.000E+00 |52IFUENBSB1B              2.460510.076464877
Zca, Zcc= 1.400E-01 1.825E-03 2.600E+00 3.390E-02 |53IFUENCSB1C
Series R-L-C.   1.000E+09  0.000E+00  0.000E+00   |  SB1A                      1.E9                                               0
Series R-L-C.   1.000E+09  0.000E+00  0.000E+00   |  SB1B                      1.E9                                               0
Series R-L-C.   1.000E+09  0.000E+00  0.000E+00   |  SB1C                      1.E9                                               0
Series R-L-C.   1.000E+09  0.000E+00  0.000E+00   |  RSNSHA                    1.E9                                               0
Series R-L-C.   1.000E+09  0.000E+00  0.000E+00   |  RSNSHB                    1.E9                                               0
Series R-L-C.   1.000E+09  0.000E+00  0.000E+00   |  RSNSHC                    1.E9                                               0
Series R-L-C.   1.000E+09  0.000E+00  0.000E+00   |  RSNNHA                    1.E9                                               0
Series R-L-C.   1.000E+09  0.000E+00  0.000E+00   |  RSNNHB                    1.E9                                               0
Series R-L-C.   1.000E+09  0.000E+00  0.000E+00   |  RSNNHC                    1.E9                                               0
Series R-L-C.   1.000E+09  0.000E+00  0.000E+00   |  SE2A                      1.E9                                               0
Series R-L-C.   1.000E+09  0.000E+00  0.000E+00   |  SE2B                      1.E9                                               0
Series R-L-C.   1.000E+09  0.000E+00  0.000E+00   |  SE2C                      1.E9                                               0
Series R-L-C.   2.500E+02  0.000E+00  3.000E-10   |  X0001B                    250.       .0003                                   0
Series R-L-C.   2.500E+02  0.000E+00  3.000E-10   |  X0002B                    250.       .0003                                   0
Series R-L-C.   1.000E-06  0.000E+00  0.000E+00   |  X0001ALN1A               1.E-6                                               0
Series R-L-C.   1.000E-06  0.000E+00  0.000E+00   |  SB1A  X0002A             1.E-6                                               0
Series R-L-C.   1.000E-06  0.000E+00  0.000E+00   |  X0001BLN1B               1.E-6                                               0
Series R-L-C.   1.000E-06  0.000E+00  0.000E+00   |  SB1B  X0002B             1.E-6                                               0
Series R-L-C.   1.000E-06  0.000E+00  0.000E+00   |  X0001CLN1C               1.E-6                                               0
Series R-L-C.   1.000E-06  0.000E+00  0.000E+00   |  SB1C  X0002C             1.E-6                                               0
Series R-L-C.   3.600E+02  0.000E+00  0.000E+00   |  XX0005X0002A              360.                                               0
Series R-L-C.   3.600E+02  0.000E+00  0.000E+00   |  XX0003X0002B              360.                                               0
Series R-L-C.   3.600E+02  0.000E+00  0.000E+00   |  XX0004X0002C              360.                                               0
Series R-L-C.   2.500E+02  0.000E+00  3.000E-10   |  X0001A                    250.       .0003                                   0
Series R-L-C.   1.000E+06  0.000E+00  0.000E+00   |  X0001AX0002A              1.E6                                               0
Series R-L-C.   1.000E+06  0.000E+00  0.000E+00   |  X0001BX0002B              1.E6                                               0
Series R-L-C.   1.000E+06  0.000E+00  0.000E+00   |  X0001CX0002C              1.E6                                               0
Series R-L-C.   2.500E+02  0.000E+00  3.000E-10   |  X0002C                    250.       .0003                                   0
Series R-L-C.   2.500E+02  0.000E+00  3.000E-10   |  X0002A                    250.       .0003                                   0
Series R-L-C.   2.500E+02  0.000E+00  3.000E-10   |  X0001C                    250.       .0003                                   0
Series R-L-C.   1.250E+02  0.000E+00  6.000E-10   |  X0001AX0002A              125.       .0006                                   0
Series R-L-C.   1.250E+02  0.000E+00  6.000E-10   |  X0001BX0002B              125.       .0006                                   0
Series R-L-C.   1.250E+02  0.000E+00  6.000E-10   |  X0001CX0002C              125.       .0006                                   0
 3.613E-01 7.977E-01 8.130E-03 5.589E+02 4.073E-04|-1LN1A  VFF2A             .36127.79775.0081389.636 0 0                         0
 2.158E-02 4.023E-01 1.538E-02 2.885E+02 3.978E-04|-2LN1B  VFF2B             .02158.40228.0153889.636 0 0                         0
3rd or later transposed distributed phase.        |-3LN1C  VFF2C                                                                  0
Blank card ending branches.  IBR, NTOT = 39  31   |BLANK BRANCH
Comment card.   NUMDCD = 198.                     |C < n 1>< n 2>< Tclose ><Top/Tde ><   Ie   ><Vf/CLOP ><  type  >
Switch.  -1.00E+00  1.00E+01  0.00E+00  0.00E+00  |  LN1A  COMPA        -1.       10.                                             0
Switch.  -1.00E+00  1.00E+01  0.00E+00  0.00E+00  |  LN1B  COMPB        -1.       10.                                             0
Switch.  -1.00E+00  1.00E+01  0.00E+00  0.00E+00  |  LN1C  COMPC        -1.       10.                                             0
Switch.  -1.00E+00  1.00E+01  0.00E+00  0.00E+00  |  VFF2A RSNNHA       -1.       10.                                             0
Switch.  -1.00E+00  1.00E+01  0.00E+00  0.00E+00  |  VFF2B RSNNHB       -1.       10.                                             0
Switch.  -1.00E+00  1.00E+01  0.00E+00  0.00E+00  |  VFF2C RSNNHC       -1.       10.                                             0
Switch.   2.00E+00 -1.00E+00  0.00E+00  0.00E+00  |  VFF2A SE2A          2.       -1.                                             0
Switch.   2.00E+00 -1.00E+00  0.00E+00  0.00E+00  |  VFF2B SE2B          2.       -1.                                             0
Switch.   2.00E+00 -1.00E+00  0.00E+00  0.00E+00  |  VFF2C SE2C          2.       -1.                                             0
Switch.   5.39E-02  1.00E+03  0.00E+00  0.00E+00  |  X0001BXX0003 .05389231      1.E3                                             0
Switch.   5.39E-02  1.00E+03  0.00E+00  0.00E+00  |  X0001CXX0004 .05389231      1.E3                                             0
Switch.   6.14E-02  1.00E+03  0.00E+00  0.00E+00  |  XX0005X0002A .06139231      1.E3                                             0
Switch.   6.14E-02  1.00E+03  0.00E+00  0.00E+00  |  XX0003X0002B .06139231      1.E3                                             0
Switch.   6.14E-02  1.00E+03  0.00E+00  0.00E+00  |  XX0004X0002C .06139231      1.E3                                             0
Switch.   5.39E-02  1.00E+03  0.00E+00  0.00E+00  |  X0001AXX0005 .05389231      1.E3                                             0
Permanently-closed switch used for metering.      |  VFUENAIFUENA                                        MEASURING                1
Permanently-closed switch used for metering.      |  VFUENBIFUENB                                        MEASURING                1
Permanently-closed switch used for metering.      |  VFUENCIFUENC                                        MEASURING                1
Permanently-closed switch used for metering.      |  COMPA RSNSHA                                        MEASURING                1
Permanently-closed switch used for metering.      |  COMPB RSNSHB                                        MEASURING                1
Permanently-closed switch used for metering.      |  COMPC RSNSHC                                        MEASURING                1
Blank card ending switches.   KSWTCH = 21.        |BLANK SWITCH
Comment card.   NUMDCD = 221.                     |C < n 1><>< Ampl.  >< Freq.  ><Phase/T0><   A1   ><   T1   >< TSTART >< TSTOP  >
Source.   4.29E+05  5.00E+01  0.00E+00 -1.00E+00  |14VFUENA  428660.705       50.                                     -1.      100.
Source.   4.29E+05  5.00E+01 -1.20E+02 -1.00E+00  |14VFUENB  428660.705       50.     -120.                           -1.      100.
Source.   4.29E+05  5.00E+01 -2.40E+02 -1.00E+00  |14VFUENC  428660.705       50.     -240.                           -1.      100.
Blank card ends electric sources.  KCONST = 3     |BLANK SOURCE
Pi-equivalent branches of distributed circuits are added to the table of List Size 3 between indices  40   and  45.

Sinusoidal steady-state phasor solution, branch by branch.   All flows are away from a bus,  and the real part,  magnitude,  or  "P"
is printed above the imaginary part,  the angle,  or  "Q".   The first solution frequency  =  5.00000000E+01  Hertz.
  Bus K                        Phasor  node  voltage              Phasor  branch  current               Power flow       Power loss
             Bus M         Rectangular            Polar          Rectangular            Polar            P  and  Q        P  and  Q

 IFUENA                    428660.705       428660.705      .42869840765504  .44575955637554      91883.080828893  .24445262137903
                                  0.0              0.0       .1221444119645       15.9032707      -26179.25487226        1.0011048

            SB1A      428660.88097145  428660.88099634       -.428698407655  .44575955637554      -91882.83637627
                      -4.620300773201       -0.0006176      -.1221444119645     -164.0967293      26180.255977012

 IFUENB                  -214330.3525       428660.705      -.1085690401319  .44575955637567       91883.08082867  .24445262137853
                      -371231.0601341     -120.0000000      -.4323359175746     -104.0967293      -26179.25487314        1.0011048

            SB1B      -214334.4417836  428660.88099634      .10856904013187  .44575955637567      -91882.83637605
                      -371228.9023795     -120.0006176      .43233591757461       75.9032707      26180.255977894

 IFUENC                  -214330.3525       428660.705       -.320129367521   .4457595563764      91883.080828956  .24445262137953
                      371231.06013415      120.0000000      .31019150560816      135.9032707       -26179.2548727        1.0011048

            SB1C      -214326.4391879  428660.88099634      .32012936752104   .4457595563764      -91882.83637633
                      371233.52268028      119.9993824      -.3101915056082      -44.0967293      26180.255977461

 SB1A                 428660.88097145  428660.88099634      .42866088097E-3    .428660881E-3      91.875075448281  91.875075448281
                      -4.620300773201       -0.0006176      -.4620300773E-8       -0.0006176      .3769296615E-19        0.0000000

            TERRA                 0.0              0.0       -.428660881E-3    .428660881E-3                  0.0
                                  0.0              0.0      .46203007732E-8      179.9993824                  0.0

 SB1B                 -214334.4417836  428660.88099634      -.2143344418E-3    .428660881E-3      91.875075448281  91.875075448281
                      -371228.9023795     -120.0006176      -.3712289024E-3     -120.0006176      .2636779683E-15        0.0000000

            TERRA                 0.0              0.0      .21433444178E-3    .428660881E-3                  0.0
                                  0.0              0.0      .37122890238E-3       59.9993824                  0.0

 SB1C                 -214326.4391879  428660.88099634      -.2143264392E-3    .428660881E-3      91.875075448281  91.875075448281
                      371233.52268028      119.9993824      .37123352268E-3      119.9993824      -.230024333E-14        0.0000000

            TERRA                 0.0              0.0      .21432643919E-3    .428660881E-3                  0.0
                                  0.0              0.0      -.3712335227E-3      -60.0006176                  0.0

 RSNSHA               188.03305460166  1001.2811351658       .1880330546E-6  .10012811352E-5      .50128195582E-3  .50128195582E-3
                      -983.4670721565      -79.1760170      -.9834670722E-6      -79.1760170      -.140289832E-20        0.0000000

            TERRA                 0.0              0.0      -.1880330546E-6  .10012811352E-5                  0.0
                                  0.0              0.0      .98346707216E-6      100.8239830                  0.0

 RSNSHB               -945.7239955739  1001.2811351659      -.9457239956E-6  .10012811352E-5      .50128195582E-3  .50128195582E-3
                      328.89213404206      160.8239830      .32889213404E-6      160.8239830       -.14412795E-19        0.0000000

            TERRA                 0.0              0.0      .94572399557E-6  .10012811352E-5                  0.0
                                  0.0              0.0       -.328892134E-6      -19.1760170                  0.0

 RSNSHC               757.69094097226  1001.2811351659      .75769094097E-6  .10012811352E-5      .50128195582E-3  .50128195582E-3
                      654.57493811452       40.8239830      .65457493811E-6       40.8239830       .529395592E-22        0.0000000

            TERRA                 0.0              0.0       -.757690941E-6  .10012811352E-5                  0.0
                                  0.0              0.0      -.6545749381E-6     -139.1760170                  0.0

 RSNNHA               189.09349662489  1009.1508066001      .18909349662E-6  .10091508066E-5      .50919267523E-3  .50919267523E-3
                      -991.2764498342      -79.2001450      -.9912764498E-6      -79.2001450      -.701449159E-21        0.0000000

            TERRA                 0.0              0.0      -.1890934966E-6  .10091508066E-5                  0.0
                                  0.0              0.0      .99127644983E-6      100.7998550                  0.0

 RSNNHB               -953.0173360421  1009.1508066002       -.953017336E-6  .10091508066E-5      .50919267523E-3  .50919267523E-3
                      331.87845314953      160.7998550      .33187845315E-6      160.7998550      -.485720456E-20        0.0000000

            TERRA                 0.0              0.0      .95301733604E-6  .10091508066E-5                  0.0
                                  0.0              0.0      -.3318784531E-6      -19.2001450                  0.0

 RSNNHC               763.92383941723  1009.1508066002      .76392383942E-6  .10091508066E-5      .50919267523E-3  .50919267523E-3
                       659.3979966847       40.7998550      .65939799668E-6       40.7998550      -.214405215E-19        0.0000000

            TERRA                 0.0              0.0      -.7639238394E-6  .10091508066E-5                  0.0
                                  0.0              0.0      -.6593979967E-6     -139.2001450                  0.0

 X0001B               -945.7239957172   1001.281135166      -.3099945344E-4  .94368523726E-4      .11131772838E-5  .11131772838E-5
                      328.89213363037      160.8239831      -.8913165631E-4     -109.1773669      -.0472447112672       -0.0472447

            TERRA                 0.0              0.0       .3099945344E-4  .94368523726E-4                  0.0
                                  0.0              0.0      .89131656311E-4       70.8226331                  0.0

 X0002B               -214334.4417835  428660.88099592      .03498702379187  .04040033622733      .20402339591022  .20402339591022
                      -371228.9023791     -120.0006176      -.0202013695939      -30.0019676      -8659.021857465    -8659.0218575

            TERRA                 0.0              0.0      -.0349870237919  .04040033622733                  0.0
                                  0.0              0.0      .02020136959387      149.9980324                  0.0

 X0001A               188.03305502986   1001.281135166      .42819758050427  .43592702611222      .07003888721205  .95016186044E-7
                      -983.4670720748      -79.1760169      .08172639809345       10.8055956      -218.2427425391        0.0000000

            LN1A      188.03305460166  1001.2811351658      -.4281975805043  .43592702611222      -.0700387921959
                      -983.4670721565      -79.1760170      -.0817263980935     -169.1944044      218.24274253908

 SB1A                 428660.88097145  428660.88099634      .42829196900129  .44536868901922      91795.724200574  .99176631352E-7
                      -4.620300773201       -0.0006176      .12214441635905       15.9175988      -26180.25597996        0.0000000

            X0002A    428660.88097102  428660.88099592      -.4282919690013  .44536868901922      -91795.72420047
                      -4.620300895346       -0.0006176       -.122144416359     -164.0824012      26180.255979964

 X0001B               -945.7239957172   1001.281135166      -.1433216993973  .43592698520982      .07007042304333  .95016168218E-7
                      328.89213363037      160.8239831      -.4116931222597     -109.1944127      -218.2427220516              0.0

            LN1B      -945.7239955739  1001.2811351659      .14332169939735  .43592698520982      -.0700703280272
                      328.89213404206      160.8239830      .41169312225975       70.8055873      218.24272205156

 SB1B                 -214334.4417836  428660.88099634      -.1083535607904  .44534157276038      91789.792290027  .99164559231E-7
                      -371228.9023795     -120.0006176      -.4319590516388     -104.0816507      -26179.86438262              0.0

            X0002B    -214334.4417835  428660.88099592      .10835356079042  .44534157276038      -91789.79228993
                      -371228.9023791     -120.0006176      .43195905163884       75.9183493      26179.864382616

 X0001C               757.69094068739   1001.281135166      -.2848759095286  .43592705572442      .07006335325573  .95016198957E-7
                      654.57493844449       40.8239831      .32996683785314      130.8055892      -218.2427573563              0.0

            LN1C      757.69094097226  1001.2811351659      .28487590952864  .43592705572442      -.0700632582395
                      654.57493811452       40.8239830      -.3299668378531      -49.1944108      218.24275735631

 SB1C                 -214326.4391879  428660.88099634      -.3199093043804  .44535649072909       91793.89310895  .99171202805E-7
                      371233.52268028      119.9993824      .30983937904239      135.9161036       -26177.1435865        0.0000000

            X0002C    -214326.4391876  428660.88099592      .31990930438042  .44535649072909      -91793.89310885
                      371233.52267997      119.9993824      -.3098393790424      -44.0838964        26177.1435865

 XX0005               428660.88097102  428660.88099592                  0.0              0.0                  0.0              0.0
                      -4.620300895346       -0.0006176                  0.0              0.0                  0.0              0.0

            X0002A    428660.88097102  428660.88099592                  0.0              0.0                  0.0
                      -4.620300895346       -0.0006176                  0.0              0.0                  0.0

 XX0003               -214334.4417835  428660.88099592                  0.0              0.0                  0.0              0.0
                      -371228.9023791     -120.0006176                  0.0              0.0                  0.0              0.0

            X0002B    -214334.4417835  428660.88099592                  0.0              0.0                  0.0
                      -371228.9023791     -120.0006176                  0.0              0.0                  0.0

 XX0004               -214326.4391876  428660.88099592                  0.0              0.0                  0.0              0.0
                      371233.52267997      119.9993824                  0.0              0.0                  0.0              0.0

            X0002C    -214326.4391876  428660.88099592                  0.0              0.0                  0.0
                      371233.52267997      119.9993824                  0.0              0.0                  0.0

 X0001A               188.03305502986   1001.281135166      .92690005367E-4  .94368523726E-4      .11131772838E-5  .11131772838E-5
                      -983.4670720748      -79.1760169      .17719513973E-4       10.8226331      -.0472447112672       -0.0472447

            TERRA                 0.0              0.0      -.9269000537E-4  .94368523726E-4                  0.0
                                  0.0              0.0      -.1771951397E-4     -169.1773669                  0.0

 X0001A               188.03305502986   1001.281135166       -.428472847916  .42847396600288      -39.80219751146  91794.969771119
                      -983.4670720748      -79.1760169      -.9788467712E-3     -179.8691079      210.78649637614        0.0000000

            X0002A    428660.88097102  428660.88099592      .42847284791599  .42847396600288       91834.77196863
                      -4.620300895346       -0.0006176      .97884677118E-3        0.1308921      -210.7864963761

 X0001B               -945.7239957172   1001.281135166      .21338871778774  .42847396600288      -39.80219751146  91794.969771119
                      328.89213363037      160.8239831       .3715577945127       60.1308921      210.78649637615        0.0000000

            X0002B    -214334.4417835  428660.88099592      -.2133887177877  .42847396600288       91834.77196863
                      -371228.9023791     -120.0006176      -.3715577945127     -119.8691079      -210.7864963761

 X0001C               757.69094068739   1001.281135166      .21508413012825  .42847396600288      -39.80219751147  91794.969771119
                      654.57493844449       40.8239831      -.3705789477415      -59.8691079      210.78649637615        0.0000000

            X0002C    -214326.4391876  428660.88099592      -.2150841301282  .42847396600288       91834.77196863
                      371233.52267997      119.9993824      .37057894774152      120.1308921      -210.7864963761

 X0002C               -214326.4391876  428660.88099592      -.0349884111555  .04040033622733      .20402339590997  .20402339590997
                      371233.52267997      119.9993824      -.0201989666096     -150.0019676      -8659.021857465    -8659.0218575

            TERRA                 0.0              0.0      .03498841115547  .04040033622733                  0.0
                                  0.0              0.0      .02019896660964       29.9980324                  0.0

 X0002A               428660.88097102  428660.88099592      .13873635962E-5  .04040033622733      .20402339591015  .20402339591015
                      -4.620300895346       -0.0006176      .04040033620351       89.9980324      -8659.021857465    -8659.0218575

            TERRA                 0.0              0.0      -.1387363596E-5  .04040033622733                  0.0
                                  0.0              0.0      -.0404003362035      -90.0019676                  0.0

 X0001C               757.69094068739   1001.281135166      -.6169055193E-4  .94368523726E-4      .11131772838E-5  .11131772838E-5
                      654.57493844449       40.8239831      .71412142338E-4      130.8226331      -.0472447112672       -0.0472447

            TERRA                 0.0              0.0      .61690551926E-4  .94368523726E-4                  0.0
                                  0.0              0.0      -.7141214234E-4      -49.1773669                  0.0

 X0001A               188.03305502986   1001.281135166      .18260528354E-3  .08076543980853      39.732141713041  .40769101671657
                      -983.4670720748      -79.1760169      -.0807652333791      -89.8704579      7.5034736444582   -17302.9441506

            X0002A    428660.88097102  428660.88099592      -.1826052835E-3  .08076543980853      -39.32445069632
                      -4.620300895346       -0.0006176      .08076523337907       90.1295421      -17310.44762421

 X0001B               -945.7239957172   1001.281135166      -.0700360464906  .08076543980853      39.732141713042  .40769101671706
                      328.89213363037      160.8239831      .04022447587512      150.1295421      7.5034736444581   -17302.9441506

            X0002B    -214334.4417835  428660.88099592      .07003604649062  .08076543980853      -39.32445069632
                      -371228.9023791     -120.0006176      -.0402244758751      -29.8704579      -17310.44762421

 X0001C               757.69094068739   1001.281135166      .06985344120708  .08076543980853      39.732141713042  .40769101671631
                      654.57493844449       40.8239831      .04054075750395       30.1295421      7.5034736444588   -17302.9441506

            X0002C    -214326.4391876  428660.88099592      -.0698534412071  .08076543980853      -39.32445069633
                      371233.52267997      119.9993824      -.0405407575039     -149.8704579      -17310.44762421

 LN1A                 188.03305460166  1001.2811351658      .42819735280905  .43592699136669       .0695218904301  .06901269775496
                      -983.4670721565      -79.1760170      .08172740574214       10.8057313      -218.2427253093     -218.2427253

            VFF2A     189.09349662489  1009.1508066001      -.1890935009E-6  .10091508064E-5      -.5091926751E-3
                      -991.2764498342      -79.2001450      .99127644882E-6      100.7998553      .2226468274E-11

 LN1B                 -945.7239955739  1001.2811351659      -.1433206668464   .4359269913667        .069521890428  .06901269775311
                      328.89213404206      160.8239830       -.411693488237     -109.1942687      -218.2427253093     -218.2427253

            VFF2B     -953.0173360421  1009.1508066002      .95301733569E-6  .10091508059E-5      -.5091926749E-3
                      331.87845314953      160.7998550      -.3318784521E-6      -19.2001449      .4223537855E-12

 LN1C                 757.69094097226  1001.2811351659      -.2848766859626   .4359269913667      .06952189043189  .06901269775593
                      654.57493811452       40.8239830      .32996608249482      130.8057313      -218.2427253093     -218.2427253

            VFF2C     763.92383941723  1009.1508066002      -.7639238409E-6   .1009150808E-5       -.509192676E-3
                       659.3979966847       40.7998550      -.6593979972E-6     -139.2001450      -.288018755E-12
     Total network loss  P-loss  by summing injections =   2.756335848073E+05

Output for steady-state phasor switch currents.
      Node-K    Node-M            I-real            I-imag            I-magn          Degrees        Power            Reactive
      LN1A      COMPA         2.09946354E-07   -8.57017557E-07    8.82358524E-07     -76.2351    4.41162701E-04   -2.26638483E-05
      LN1B      COMPB        -9.90403864E-07    3.30733448E-07    1.04416686E-06     161.5339    5.22712164E-04   -6.47674121E-06
      LN1C      COMPC         7.03430969E-07    7.61767771E-07    1.03687283E-06      47.2800    5.15808682E-04   -5.83681282E-05
      VFF2A     RSNNHA        1.89093502E-07   -9.91276449E-07    1.00915081E-06     -79.2001    5.09192675E-04   -2.48952123E-12
      VFF2B     RSNNHB       -9.53017337E-07    3.31878453E-07    1.00915081E-06     160.7999    5.09192676E-04   -8.45037023E-14
      VFF2C     RSNNHC        7.63923843E-07    6.59398000E-07    1.00915081E-06      40.7999    5.09192678E-04   -1.69769315E-13
      VFF2A     SE2A              Open              Open              Open             Open          Open              Open
      VFF2B     SE2B              Open              Open              Open             Open          Open              Open
      VFF2C     SE2C              Open              Open              Open             Open          Open              Open
      X0001B    XX0003            Open              Open              Open             Open          Open              Open
      X0001C    XX0004            Open              Open              Open             Open          Open              Open
      XX0005    X0002A            Open              Open              Open             Open          Open              Open
      XX0003    X0002B            Open              Open              Open             Open          Open              Open
      XX0004    X0002C            Open              Open              Open             Open          Open              Open
      X0001A    XX0005            Open              Open              Open             Open          Open              Open
      VFUENA    IFUENA        4.28698408E-01    1.22144412E-01    4.45759556E-01      15.9033    9.18830808E+04   -2.61792549E+04
      VFUENB    IFUENB       -1.08569040E-01   -4.32335918E-01    4.45759556E-01    -104.0967    9.18830808E+04   -2.61792549E+04
      VFUENC    IFUENC       -3.20129368E-01    3.10191506E-01    4.45759556E-01     135.9033    9.18830808E+04   -2.61792549E+04
      COMPA     RSNSHA        2.09946354E-07   -8.57017557E-07    8.82358524E-07     -76.2351    4.41162701E-04   -2.26638483E-05
      COMPB     RSNSHB       -9.90403864E-07    3.30733448E-07    1.04416686E-06     161.5339    5.22712164E-04   -6.47674121E-06
      COMPC     RSNSHC        7.03430969E-07    7.61767771E-07    1.03687283E-06      47.2800    5.15808682E-04   -5.83681282E-05

Solution at nodes with known voltage.   Nodes that are shorted together by switches are shown as a group of names, with the printed
result applying to the composite group.   The entry "MVA" is  SQRT( P**2 + Q**2 )  in units of power,  while  "P.F."  is the
associated power factor.
              Node                Source  node  voltage             Injected  source  current              Injected  source  power
              name         Rectangular            Polar          Rectangular            Polar            P  and  Q    MVA and P.F.

               VFUENA
              IFUENA       428660.705       428660.705       .4286984076558  .44575955637542      91883.080829056  95539.802848187
                                  0.0              0.0      .12214441196138       15.9032707      -26179.25487159        0.9617257

               VFUENB
              IFUENB     -214330.3525       428660.705      -.1085690401309  .44575955637601      91883.080828674  95539.802848314
                      -371231.0601341     -120.0000000      -.4323359175752     -104.0967293      -26179.25487339        0.9617257

               VFUENC
              IFUENC     -214330.3525       428660.705      -.3201293675227  .44575955637837      91883.080829343   95539.80284882
                      371231.06013415      120.0000000      .31019150560929      135.9032707      -26179.25487289        0.9617257

  +++  Node  "COMPC "  has no connected linear branches.  Add (to ground) the conductance  G = 1.00000000E-18  mhos.
  +++  Node  "COMPB "  has no connected linear branches.  Add (to ground) the conductance  G = 1.00000000E-18  mhos.
  +++  Node  "COMPA "  has no connected linear branches.  Add (to ground) the conductance  G = 1.00000000E-18  mhos.
Card of names for time-step loop output.          |  LN1A  LN1B  LN1C  COMPA COMPB COMPC SB1A  SB1B  SB1C  SE2A  SE2B  SE2C  VFF2A
Card of names for time-step loop output.          |  VFF2B VFF2C IFUENAIFUENBIFUENC
Card of names for time-step loop output.          |-5VFF2A VFF2B VFF2B VFF2C VFF2C VFF2A LN1A  LN1B  LN1B  LN1C  LN1C  LN1A
Card of names for time-step loop output.          |-5SB1A  SB1B  SB1B  SB1C  SB1C  SB1A
Blank card ending requests for output variables.  |BLANK OUTPUT

Column headings for the  55   EMTP output variables follow.  These are divided among the 5 possible classes as follows ....
  First  27     output variables are electric-network voltage differences (upper voltage minus lower voltage);
  Next   6     output variables are branch currents (flowing from the upper node to the lower node);
  Next   22     output variables belong to MODELS (with "MODELS" an internally-added upper name of pair).
   Step      Time      LN1A       LN1B       LN1C       COMPA      COMPB      COMPC      SB1A       SB1B       SB1C       SE2A
 

                       SE2B       SE2C       VFF2A      VFF2B      VFF2C      IFUENA     IFUENB     IFUENC     VFF2A      VFF2B
                                                                                                               VFF2B      VFF2C

                       VFF2C      LN1A       LN1B       LN1C       SB1A       SB1B       SB1C       VFUENA     VFUENB     VFUENC
                       VFF2A      LN1B       LN1C       LN1A       SB1B       SB1C       SB1A       IFUENA     IFUENB     IFUENC

                       COMPA      COMPB      COMPC      MODELS     MODELS     MODELS     MODELS     MODELS     MODELS     MODELS
                       RSNSHA     RSNSHB     RSNSHC     ANVOL      LONG       R0F        R1F        X0F        X1F        RDIVX

                       MODELS     MODELS     MODELS     MODELS     MODELS     MODELS     MODELS     MODELS     MODELS     MODELS
                       RINSER     CLOSE1     RPPOS      RPCERO     LPPOS      LPCERO     CPPOS      CPCERO     XP         CR

                       MODELS     MODELS     MODELS     MODELS     MODELS
                       SIMET      ENC1       ENC2       ENC1AS     ENC2AS
 ***      Phasor I(0) =  2.0994635E-07                     Switch  "LN1A  "  to  "COMPA "  closed in the steady-state.
 ***      Phasor I(0) = -9.9040386E-07                     Switch  "LN1B  "  to  "COMPB "  closed in the steady-state.
 ***      Phasor I(0) =  7.0343097E-07                     Switch  "LN1C  "  to  "COMPC "  closed in the steady-state.
 ***      Phasor I(0) =  1.8909350E-07                     Switch  "VFF2A "  to  "RSNNHA"  closed in the steady-state.
 ***      Phasor I(0) = -9.5301734E-07                     Switch  "VFF2B "  to  "RSNNHB"  closed in the steady-state.
 ***      Phasor I(0) =  7.6392384E-07                     Switch  "VFF2C "  to  "RSNNHC"  closed in the steady-state.
 ***      Phasor I(0) =  4.2869841E-01                     Switch  "VFUENA"  to  "IFUENA"  closed in the steady-state.
 ***      Phasor I(0) = -1.0856904E-01                     Switch  "VFUENB"  to  "IFUENB"  closed in the steady-state.
 ***      Phasor I(0) = -3.2012937E-01                     Switch  "VFUENC"  to  "IFUENC"  closed in the steady-state.
 ***      Phasor I(0) =  2.0994635E-07                     Switch  "COMPA "  to  "RSNSHA"  closed in the steady-state.
 ***      Phasor I(0) = -9.9040386E-07                     Switch  "COMPB "  to  "RSNSHB"  closed in the steady-state.
 ***      Phasor I(0) =  7.0343097E-07                     Switch  "COMPC "  to  "RSNSHC"  closed in the steady-state.
      0       0.0  188.033055   -945.724 757.690941 188.033055   -945.724 757.690941 428660.881 -214334.44 -214326.44        0.0
                          0.0        0.0 189.093497 -953.01734 763.923839 428660.705 -214330.35 -214330.35 1142.11083 -1716.9412
                   574.830343 1133.75705 -1703.4149 569.657886 642995.323 -8.0025957 -642987.32 .428698408 -.10856904 -.32012937
                   .209946E-6  -.9904E-6 .703431E-6        0.0    89.6356   2.880535   2.460473   11.79676   10.07646     .24418
                         360.    .053892    .021575    .361274    .402276    .797745    .015382    .008131   3551.671   71.03342
                          0.0        0.0        0.0        0.0        0.0
    500     .5E-3  339.566186 -985.53061 645.964427 339.566186 -985.53061 645.964427 423384.089 -153622.64 -269761.45        0.0
                          0.0        0.0  341.83177  -993.1996 651.367832  423383.18 -153618.26 -269764.92 1335.03137 -1644.5674
                   309.536063  1325.0968  -1631.495  306.39824 577006.729 116138.808 -693145.54 .404326043 -.03960492 -.36472113
                   .367736E-6 -.10314E-5 .720436E-6        0.0    89.6356   2.880535   2.460473   11.79676   10.07646     .24418
                         360.    .053892    .021575    .361274    .402276    .797745    .015382    .008131   3551.671   71.03342
                          0.0        0.0        0.0        0.0        0.0
   1000     .1E-2  482.736779 -1001.0696 518.332786 482.736779 -1001.0696 518.332786 407682.155  -89128.13 -318554.03        0.0
                          0.0        0.0  486.15979 -1008.9294  522.76959 407680.557 -89123.572 -318556.98 1495.08917  -1531.699
                   36.6097994 1483.80634 -1519.4024 35.5960071 496810.284 229425.896 -726236.18 .369989685 .030338479 -.40032816
                   .479114E-6 -.10824E-5 .546454E-6        0.0    89.6356   2.880535   2.460473   11.79676   10.07646     .24418
                         360.    .053892    .021575    .361274    .402276    .797745    .015382    .008131   3551.671   71.03342
                          0.0        0.0        0.0        0.0        0.0
   1500     .0015  614.023407 -991.96016 377.936749 614.023407 -991.96016 377.936749 381941.725 -22438.984 -359502.74        0.0
                          0.0        0.0 618.514026 -999.81452 381.300498 381939.485 -22434.368 -359505.12 1618.32855  -1381.115
                   -237.21353 1605.98356 -1369.8969 -236.08666 404380.709 337063.757 -741444.47 .326533314 .099539656 -.42607297
                   .696817E-6 -.10454E-5 .405475E-6        0.0    89.6356   2.880535   2.460473   11.79676   10.07646     .24418
                         360.    .053892    .021575    .361274    .402276    .797745    .015382    .008131   3551.671   71.03342
                          0.0        0.0        0.0        0.0        0.0
   2000      .002  730.190094 -958.42508 228.234984 730.190094 -958.42508 228.234984 346796.654 44802.6676 -391599.32        0.0
                          0.0        0.0 735.639068 -966.08125 230.442185 346793.795 44807.2448 -391601.04 1701.72032 -1196.5234
                   -505.19688 1688.61517 -1186.6601 -501.95511 301993.986 436401.989 -738395.98 .275040743 .166287777 -.44132852
                   .726046E-6 -.96574E-6 .239685E-6        0.0    89.6356   2.880535   2.460473   11.79676   10.07646     .24418
                         360.    .053892    .021575    .361274    .402276    .797745    .015382    .008131   3551.671   71.03342
                          0.0        0.0        0.0        0.0        0.0
   2500     .0025  828.375923 -901.28982 72.9139009 828.375923 -901.28982 72.9139009 303112.302 110941.127 -414053.43        0.0
                          0.0        0.0 834.648111 -908.55877 73.9106633 303108.891 110945.554 -414054.45 1743.20688 -982.46944
                   -760.73745 1729.66575 -974.20372 -755.46202 192171.175 524994.557 -717165.73 .216774579 .228941932 -.44571651
                   .819689E-6 -.91464E-6 .807195E-7        0.0    89.6356   2.880535   2.460473   11.79676   10.07646     .24418
                         360.    .053892    .021575    .361274    .402276    .797745    .015382    .008131   3551.671   71.03342
                          0.0        0.0        0.0        0.0        0.0
   3000      .003  906.164778 -821.96201 -84.202773 906.164778 -821.96201 -84.202773  251964.28 174347.868 -426312.15        0.0
                          0.0        0.0 913.105229 -828.66452 -84.440708 251960.441 174352.016 -426312.46 1741.76975 -744.22381
                   -997.54594 1728.12678 -737.75923 -990.36755 77616.4126 600660.016 -678276.43 .153172957 .285957642  -.4391306
                    .95661E-6 -.88763E-6 -.83135E-7        0.0    89.6356   2.880535   2.460473   11.79676   10.07646     .24418
                         360.    .053892    .021575    .361274    .402276    .797745    .015382    .008131   3551.671   71.03342
                          0.0        0.0        0.0        0.0        0.0
   3500     .0035  961.640192 -722.39444 -239.24575 961.640192 -722.39444 -239.24575  194612.08 233461.576 -428073.66        0.0
                          0.0        0.0  969.08031 -728.36661  -240.7137 194607.888 233465.353 -428073.24 1697.44692 -487.65291
                    -1209.794 1684.03463 -483.14868 -1200.8859 -38849.496 661535.231 -622685.74   .0858001 .335931933 -.42173203
                   .104419E-5 -.73228E-6 -.25505E-6        0.0    89.6356   2.880535   2.460473   11.79676   10.07646     .24418
                         360.    .053892    .021575    .361274    .402276    .797745    .015382    .008131   3551.671   71.03342
                          0.0        0.0        0.0        0.0        0.0
   4000      .004  993.440268 -605.04083 -388.39944 993.440268 -605.04083 -388.39944 132467.888 286826.683 -419294.57        0.0
                          0.0        0.0 1001.19292 -610.13365 -391.05927 132463.443 286829.997 -419293.44 1611.32657 -219.07438
                   -1392.2522  1598.4811 -216.64139 -1381.8397 -154358.79 706121.254 -551762.46  .01631209 .377635701 -.39394779
                   .107648E-5 -.59376E-6 -.42588E-6        0.0    89.6356   2.880535   2.460473   11.79676   10.07646     .24418
                         360.    .053892    .021575    .361274    .402276    .797745    .015382    .008131   3551.671   71.03342
                          0.0        0.0        0.0        0.0        0.0
   4500     .0045  1000.77405 -472.78686 -527.98719 1000.77405 -472.78686 -527.98719 67061.8957 333129.166 -400191.06        0.0
                          0.0        0.0 1008.65182 -476.87668 -531.77514 67057.3081 333131.936 -400189.24  1485.5285 54.8984666
                    -1540.427 1473.56091 55.2003275 -1528.7612 -266067.27 733320.229 -467252.96 -.05357467  .41003937  -.3564647
                    .10071E-5  -.4876E-6 -.51953E-6        0.0    89.6356   2.880535   2.460473   11.79676   10.07646     .24418
                         360.    .053892    .021575    .361274    .402276    .797745    .015382    .008131   3551.671   71.03342
                          0.0        0.0        0.0        0.0        0.0
   5000      .005  983.466461 -328.89182 -654.57464 983.466461 -328.89182 -654.57464 4.62605709 371228.899 -371233.53        0.0
                          0.0        0.0  991.27682 -331.87863 -659.39819 -.45661E-7  371231.06 -371231.06 1323.15545 327.519564
                    -1650.675 1312.35828 325.682813 -1638.0411 -371224.27 742462.425 -371238.15 -.12214355 .432347169 -.31020361
                   .105238E-5 -.33672E-6 -.71572E-6        0.0    89.6356   2.880535   2.460473   11.79676   10.07646     .24418
                         360.    .053892    .021575    .361274    .402276    .797745    .015382    .008131   3551.671   71.03342
                          0.0        0.0        0.0        0.0        0.0
   5500     .0055  941.944296 -176.89918 -765.04512 941.944296 -176.89918 -765.04512  -67052.77 400187.751 -333134.98        0.0
                          0.0        0.0 949.491638 -178.70781 -770.78383 -67057.308 400189.244 -333131.94 1128.19945 592.076019
                   -1720.2755 1118.84348 588.145935 -1706.9894 -467240.52 733322.732 -266082.21 -.18770638 .444009899 -.25630352
                   .964856E-6 -.18437E-6 -.80891E-6        0.0    89.6356   2.880535   2.460473   11.79676   10.07646     .24418
                         360.    .053892    .021575    .361274    .402276    .797745    .015382    .008131   3551.671   71.03342
                          0.0        0.0        0.0        0.0        0.0
   6000      .006  877.227669 -20.550363 -856.67731 877.227669 -20.550363 -856.67731  -132459.1 419292.651 -286833.55        0.0
                          0.0        0.0 884.325552 -21.135972 -863.18958 -132463.44  419293.44   -286830. 905.461524 842.053608
                   -1747.5151 897.778031 836.126944  -1733.905 -551751.75   706126.2 -154374.45 -.24864546  .44473874 -.19609328
                   .868743E-6  -.2227E-7 -.86421E-6        0.0    89.6356   2.880535   2.460473   11.79676   10.07646     .24418
                         360.    .053892    .021575    .361274    .402276    .797745    .015382    .008131   3551.671   71.03342
                          0.0        0.0        0.0        0.0        0.0
   6500     .0065  790.911476 136.304117 -927.21559 790.911476 136.304117 -927.21559 -194603.85 428073.173 -233469.32        0.0
                          0.0        0.0 797.387309 136.954872 -934.34218 -194607.89  428073.24 -233465.35 660.432436 1071.29705
                   -1731.7295 654.607359 1063.51971 -1718.1271 -622677.02 661542.498 -38865.475   -.303463 .434517103 -.13105411
                   .884045E-6 .145922E-6 -.91625E-6        0.0    89.6356   2.880535   2.460473   11.79676   10.07646     .24418
                         360.    .053892    .021575    .361274    .402276    .797745    .015382    .008131   3551.671   71.03342
                          0.0        0.0        0.0        0.0        0.0
   7000      .007  685.118464 289.803329 -974.92179 685.118464 289.803329 -974.92179 -251956.81 426313.117 -174356.31        0.0
                          0.0        0.0 690.812884 291.674351 -982.48724 -251960.44 426312.457 -174352.02 399.138534 1274.16159
                   -1673.3001 395.315135 1264.72512 -1660.0403 -678269.93 600669.423 77600.5036 -.35080766 .413595907 -.06278825
                   .764948E-6 .307333E-6 -.10154E-5        0.0    89.6356   2.880535   2.460473   11.79676   10.07646     .24418
                         360.    .053892    .021575    .361274    .402276    .797745    .015382    .008131   3551.671   71.03342
                          0.0        0.0        0.0        0.0        0.0
   7500     .0075  562.456025 436.166377  -998.6224 562.456025 436.166377  -998.6224 -303105.75 414055.812 -110950.06        0.0
                          0.0        0.0 567.228901 439.211576 -1006.4405 -303108.89 414054.446 -110945.55 128.017325 1445.65205
                   -1573.6694 126.289648 1434.78878 -1561.0784 -717161.56 525005.874 192155.687 -.38951405 .382490497 .007023549
                   .564164E-6 .480208E-6 -.10444E-5        0.0    89.6356   2.880535   2.460473   11.79676   10.07646     .24418
                         360.    .053892    .021575    .361274    .402276    .797745    .015382    .008131   3551.671   71.03342
                          0.0        0.0        0.0        0.0        0.0
   8000      .008  425.945644 571.788772 -997.73442 425.945644 571.788772 -997.73442 -346791.22 391603.077 -44811.861        0.0
                          0.0        0.0 429.677567 575.934097 -1005.6117  -346793.8  391601.04 -44807.245 -146.25653 1581.54576
                   -1435.2892 -145.84313 1569.52319 -1423.6801 -738394.29 436414.938 301979.355 -.41862973 .341967115 .076662616
                   .436665E-6 .576573E-6 -.10701E-5        0.0    89.6356   2.880535   2.460473   11.79676   10.07646     .24418
                         360.    .053892    .021575    .361274    .402276    .797745    .015382    .008131   3551.671   71.03342
                          0.0        0.0        0.0        0.0        0.0
   8500     .0085  278.946317  693.33221 -972.27853 278.946317  693.33221 -972.27853 -381937.54 359507.781  22429.763        0.0
                          0.0        0.0 281.546563 698.474996 -980.02156 -381939.48 359505.117 22434.3679 -416.92843 1678.49656
                   -1261.5681 -414.38589 1665.61074 -1251.2248 -741445.32 337078.018 404367.307 -.43743703 .293023199 .144413833
                   .288061E-6 .687121E-6 -.97521E-6        0.0    89.6356   2.880535   2.460473   11.79676   10.07646     .24418
                         360.    .053892    .021575    .361274    .402276    .797745    .015382    .008131   3551.671   71.03342
                          0.0        0.0        0.0        0.0        0.0
   9000      .009  125.077982 797.803707 -922.88169 125.077982 797.803707 -922.88169  -407679.3 318560.208 89119.0894        0.0
                          0.0        0.0 126.483052 803.817079 -930.30013 -407680.56 318556.985  89123.572 -677.33403 1734.11721
                   -1056.7832 -672.72573  1720.6854 -1047.9597  -726239.5 229441.118 496798.386 -.44547392 .236864452 .208609472
                   .130065E-6 .843817E-6 -.95973E-6        0.0    89.6356   2.880535   2.460473   11.79676   10.07646     .24418
                         360.    .053892    .021575    .361274    .402276    .797745    .015382    .008131   3551.671   71.03342
                          0.0        0.0        0.0        0.0        0.0
   9500     .0095    -31.8698 882.630449 -850.76065   -31.8698 882.630449 -850.76065 -423382.63 269768.624 153614.008        0.0
                          0.0        0.0 -31.695599 889.366861 -857.67126 -423383.18 269764.922 153618.258 -921.06246 1747.03812
                   -825.97566 -914.50025  1733.3911 -818.89085 -693151.26 116154.617 576996.639 -.44254178 .174873322 .267668458
                   -.32903E-7 .933627E-6 -.91497E-6        0.0    89.6356   2.880535   2.460473   11.79676   10.07646     .24418
                         360.    .053892    .021575    .361274    .402276    .797745    .015382    .008131   3551.671   71.03342
                          0.0        0.0        0.0        0.0        0.0
  10000       .01  -188.03319 945.724071 -757.69088 -188.03319 945.724071 -757.69088 -428660.88 214334.441 214326.438        0.0
                          0.0        0.0 -189.09491  953.01804 -763.92313 -428660.71 214330.353 214330.352 -1142.1129 1716.94117
                   -574.82822 -1133.7573 1703.41495 -569.65768 -642995.32 8.00283587 642987.318 -.42871199 .108575829 .320136157
                   -.18952E-6 .992727E-6  -.7748E-6        0.0    89.6356   2.880535   2.460473   11.79676   10.07646     .24418
                         360.    .053892    .021575    .361274    .402276    .797745    .015382    .008131   3551.671   71.03342
                          0.0        0.0        0.0        0.0        0.0
  10500     .0105   -339.5663 985.530677 -645.96438  -339.5663 985.530677 -645.96438 -423384.08 153622.634 269761.442        0.0
                          0.0        0.0 -341.83539 993.201415 -651.36603 -423383.18 153618.258 269764.922 -1335.0368 1644.56744
                   -309.53064  -1325.097 1631.49505 -306.39807 -577006.71 -116138.81 693145.518 -.40432552  .03960466 .364720863
                   -.33898E-6 .986387E-6 -.64739E-6        0.0    89.6356   2.880535   2.460473   11.79676   10.07646     .24418
                         360.    .053892    .021575    .361274    .402276    .797745    .015382    .008131   3551.671   71.03342
                          0.0        0.0        0.0        0.0        0.0
  11000      .011   -482.7381 1001.07023 -518.33213  -482.7381 1001.07023 -518.33213 -407682.15 89128.1291 318554.025        0.0
                          0.0        0.0 -486.15925 1008.92912 -522.76987 -407680.56  89123.572 318556.985 -1495.0884 1531.69898
                   -36.610618 -1483.8083 1519.40236 -35.594027 -496810.28  -229425.9 726236.179 -.36998437 -.03034114 .400325503
                    -.4836E-6 .102666E-5 -.59998E-6        0.0    89.6356   2.880535   2.460473   11.79676   10.07646     .24418
                         360.    .053892    .021575    .361274    .402276    .797745    .015382    .008131   3551.671   71.03342
                          0.0        0.0        0.0        0.0        0.0
  11500     .0115  -614.02348 991.960197 -377.93672 -614.02348 991.960197 -377.93672 -381941.74 22438.9916 359502.748        0.0
                          0.0        0.0 -618.51353 999.814281 -381.30075 -381939.48 22434.3679 359505.117 -1618.3278 1381.11503
                    237.21278 -1605.9837 1369.89691 236.086763 -404380.73 -337063.76 741444.489 -.32653294 -.09953985 .426072787
                   -.69928E-6 .104911E-5  -.4067E-6        0.0    89.6356   2.880535   2.460473   11.79676   10.07646     .24418
                         360.    .053892    .021575    .361274    .402276    .797745    .015382    .008131   3551.671   71.03342
                          0.0        0.0        0.0        0.0        0.0
  12000      .012  -730.18842 958.424243 -228.23583 -730.18842 958.424243 -228.23583 -346796.65 -44802.669 391599.321        0.0
                          0.0        0.0  -735.6378 966.080618 -230.44282  -346793.8 -44807.245  391601.04 -1701.7184 1196.52344
                   505.194984 -1688.6127 1186.66007  501.95259 -301993.98 -436401.99 738395.973 -.27504055 -.16628787 .441328423
                   -.73288E-6 .969637E-6  -.2368E-6        0.0    89.6356   2.880535   2.460473   11.79676   10.07646     .24418
                         360.    .053892    .021575    .361274    .402276    .797745    .015382    .008131   3551.671   71.03342
                          0.0        0.0        0.0        0.0        0.0
  12500     .0125  -828.37575 901.289742 -72.913993 -828.37575 901.289742 -72.913993 -303112.28 -110941.14 414053.419        0.0
                          0.0        0.0 -834.64805 908.558748 -73.910703 -303108.89 -110945.55 414054.446 -1743.2068 982.469451
                   760.737343 -1729.6655 974.203734 755.461756 -192171.14 -524994.56 717165.701 -.21677576 -.22894134 .445717095
                   -.92069E-6   .9618E-6 -.69565E-7        0.0    89.6356   2.880535   2.460473   11.79676   10.07646     .24418
                         360.    .053892    .021575    .361274    .402276    .797745    .015382    .008131   3551.671   71.03342
                          0.0        0.0        0.0        0.0        0.0
  13000      .013  -906.16497 821.962108 84.2028642 -906.16497 821.962108 84.2028642 -251964.28 -174347.87  426312.15        0.0
                          0.0        0.0 -913.10573 828.664781 84.4409538 -251960.44 -174352.02 426312.457 -1741.7705 744.223827
                   997.546689 -1728.1271 737.759244 990.367837 -77616.418 -600660.02 678276.433  -.1531734 -.28595742 .439130819
                    -.9262E-6 .872953E-6 .816508E-7        0.0    89.6356   2.880535   2.460473   11.79676   10.07646     .24418
                         360.    .053892    .021575    .361274    .402276    .797745    .015382    .008131   3551.671   71.03342
                          0.0        0.0        0.0        0.0        0.0
  13500     .0135   -961.6407 722.394695 239.246001  -961.6407 722.394695 239.246001 -194612.09 -233461.57 428073.658        0.0
                          0.0        0.0 -969.08014 728.366531  240.71361 -194607.89 -233465.35  428073.24 -1697.4467 487.652921
                   1209.79375 -1684.0354 483.148694  1200.8867 38849.4878 -661535.23 622685.744 -.08579976  -.3359321 .421731865
                   -.10179E-5  .77686E-6 .241023E-6        0.0    89.6356   2.880535   2.460473   11.79676   10.07646     .24418
                         360.    .053892    .021575    .361274    .402276    .797745    .015382    .008131   3551.671   71.03342
                          0.0        0.0        0.0        0.0        0.0
  14000      .014  -993.43796 605.039686 388.398275 -993.43796 605.039686 388.398275 -132467.89 -286826.68 419294.573        0.0
                          0.0        0.0 -1001.1924 610.133383 391.058985 -132463.44   -286830.  419293.44 -1611.3258 219.074398
                   1392.25135 -1598.4776 216.641411 1381.83624 154358.791 -706121.25 551762.463 -.01631317 -.37763516 .393948332
                   -.10068E-5 .673636E-6 .389991E-6        0.0    89.6356   2.880535   2.460473   11.79676   10.07646     .24418
                         360.    .053892    .021575    .361274    .402276    .797745    .015382    .008131   3551.671   71.03342
                          0.0        0.0        0.0        0.0        0.0
  14500     .0145  -1000.7743 472.787009 527.987328 -1000.7743 472.787009 527.987328   -67061.9 -333129.16 400191.064        0.0
                          0.0        0.0 -1008.6531 476.877331 531.775791 -67057.308 -333131.94 400189.244 -1485.5305  -54.89846
                   1540.42891 -1473.5613 -55.200319 1528.76166 266067.265 -733320.23 467252.964 .053575323  -.4100397 .356464375
                      -.11E-5 .477718E-6 .565458E-6        0.0    89.6356   2.880535   2.460473   11.79676   10.07646     .24418
                         360.    .053892    .021575    .361274    .402276    .797745    .015382    .008131   3551.671   71.03342
                          0.0        0.0        0.0        0.0        0.0
  % % % % % %   Suspended simulation;  plot data space exhausted;  SPY SPACE is required.   LIMBUF =  840000.
  % % % % % %   Suspended simulation;  plot data space exhausted;  SPY SPACE is required.   LIMBUF =  840000.
  +++  Time-sharing disabled.   Send  user-keyed interrupt to silence alarm.
   Current values.  INDBUF  INDBEG  LIMBUF  MFLUSH  NUMDCD  KCARD1  KCARD2
                    839994      50  840000    1000     230       1     231
Plot timespan now in memory (in sec) = 0.00000000E+00   1.49990000E-02
   ++++  Begin plot-data copy from memory to disk.   MFLUSH, INDBUF, N4, Tbeg,  Tend = 1001  839994       1  -1.00000E+00
1.00000E+19
  15000      .015  -983.46724 328.892217 654.575023 -983.46724 328.892217 654.575023 -4.6205909  -371228.9 371233.523        0.0
                          0.0        0.0 -991.27639 331.878418 659.397972 -.61533E-6 -371231.06  371231.06 -1323.1548 -327.51955
                   1650.67436 -1312.3595 -325.68281 1638.04226 371224.282 -742462.43 371238.143 .122144517 -.43234765 .310203131
                   -.10596E-5 .339067E-6 .663684E-6        0.0    89.6356   2.880535   2.460473   11.79676   10.07646     .24418
                         360.    .053892    .021575    .361274    .402276    .797745    .015382    .008131   3551.671   71.03342
                          0.0        0.0        0.0        0.0        0.0
  15500     .0155  -941.94397 176.899023 765.044947 -941.94397 176.899023 765.044947 67052.7719 -400187.75  333134.98        0.0
                          0.0        0.0 -949.49142 178.707704 770.783712 67057.3081 -400189.24 333131.936 -1128.1991 -592.07601
                   1720.27513  -1118.843 -588.14592 1706.98892 467240.524 -733322.73 266082.208 .187705894 -.44400966 .256303763
                   -.10193E-5 .182991E-6 .779517E-6        0.0    89.6356   2.880535   2.460473   11.79676   10.07646     .24418
                         360.    .053892    .021575    .361274    .402276    .797745    .015382    .008131   3551.671   71.03342
                          0.0        0.0        0.0        0.0        0.0
  16000      .016  -877.22777 20.5504235 856.677351 -877.22777 20.5504235 856.677351 132459.102 -419292.65 286833.549        0.0
                          0.0        0.0 -884.32688 21.1366432 863.190239 132463.443 -419293.44 286829.997 -905.46353  -842.0536
                   1747.51712  -897.7782 -836.12693 1733.90512 551751.753  -706126.2 154374.447 .248645877 -.44473895 .196093072
                   -.96491E-6 .204938E-7 .912463E-6        0.0    89.6356   2.880535   2.460473   11.79676   10.07646     .24418
                         360.    .053892    .021575    .361274    .402276    .797745    .015382    .008131   3551.671   71.03342
                          0.0        0.0        0.0        0.0        0.0
  16500     .0165  -790.91034 -136.30468  927.21502 -790.91034 -136.30468  927.21502 194603.851 -428073.17 233469.324        0.0
                          0.0        0.0 -797.38639 -136.95533 934.341714 194607.888 -428073.24 233465.353 -660.43106  -1071.297
                    1731.7281 -654.60566 -1063.5197 1718.12536 622677.025  -661542.5 38865.4729 .303462586  -.4345169 .131054312
                   -.88262E-6  -.1466E-6 .972475E-6        0.0    89.6356   2.880535   2.460473   11.79676   10.07646     .24418
                         360.    .053892    .021575    .361274    .402276    .797745    .015382    .008131   3551.671   71.03342
                          0.0        0.0        0.0        0.0        0.0
  17000      .017  -685.11911   -289.803 974.922112 -685.11911   -289.803 974.922112 251956.806 -426313.11 174356.309        0.0
                          0.0        0.0 -690.81316 -291.67421  982.48737 251960.441 -426312.46 174352.016 -399.13896 -1274.1616
                   1673.30053 -395.31611 -1264.7251 1660.04123  678269.92 -600669.42 -77600.497  .35080718 -.41359567 .062788489
                   -.67132E-6 -.29663E-6 .967935E-6        0.0    89.6356   2.880535   2.460473   11.79676   10.07646     .24418
                         360.    .053892    .021575    .361274    .402276    .797745    .015382    .008131   3551.671   71.03342
                          0.0        0.0        0.0        0.0        0.0
  17500     .0175  -562.45682 -436.16597 998.622795 -562.45682 -436.16597 998.622795 303105.749 -414055.81 110950.063        0.0
                          0.0        0.0 -567.22924  -439.2114 1006.44064 303108.891 -414054.45 110945.554 -128.01784  -1445.652
                   1573.66988 -126.29085 -1434.7888 1561.07962  717161.56 -525005.87 -192155.69 .389514243  -.3824906 -.00702365
                   -.61248E-6 -.45616E-6 .101188E-5        0.0    89.6356   2.880535   2.460473   11.79676   10.07646     .24418
                         360.    .053892    .021575    .361274    .402276    .797745    .015382    .008131   3551.671   71.03342
                          0.0        0.0        0.0        0.0        0.0
  18000      .018   -425.9452 -571.78899 997.734187  -425.9452 -571.78899 997.734187 346791.222 -391603.08  44811.858        0.0
                          0.0        0.0 -429.67781 -575.93397 1005.61178 346793.795 -391601.04 44807.2448 146.256167 -1581.5457
                   1435.28958 145.843791 -1569.5232 1423.67938 738394.302 -436414.94 -301979.36 .418630047 -.34196727 -.07666278
                   -.42216E-6 -.58479E-6 .106375E-5        0.0    89.6356   2.880535   2.460473   11.79676   10.07646     .24418
                         360.    .053892    .021575    .361274    .402276    .797745    .015382    .008131   3551.671   71.03342
                          0.0        0.0        0.0        0.0        0.0
  18500     .0185  -278.94608 -693.33232 972.278402 -278.94608 -693.33232 972.278402 381937.541 -359507.78 -22429.762        0.0
                          0.0        0.0 -281.54641 -698.47507 980.021476 381939.485 -359505.12 -22434.368 416.928657 -1678.4965
                   1261.56788 414.386243 -1665.6107 1251.22448 741445.321 -337078.02  -404367.3 .437437586 -.29302348 -.14441411
                   -.27025E-6 -.72405E-6 .105111E-5        0.0    89.6356   2.880535   2.460473   11.79676   10.07646     .24418
                         360.    .053892    .021575    .361274    .402276    .797745    .015382    .008131   3551.671   71.03342
                          0.0        0.0        0.0        0.0        0.0
  19000      .019  -125.07808 -797.80365 922.881736 -125.07808 -797.80365 922.881736 407679.296 -318560.21 -89119.089        0.0
                          0.0        0.0 -126.48245 -803.81737 930.299828 407680.557 -318556.98 -89123.572 677.334919 -1734.1172
                   1056.78228  672.72557 -1720.6854 1047.95982 726239.503 -229441.12 -496798.38 .445473821  -.2368644 -.20860942
                   -.13693E-6 -.79764E-6  .10056E-5        0.0    89.6356   2.880535   2.460473   11.79676   10.07646     .24418
                         360.    .053892    .021575    .361274    .402276    .797745    .015382    .008131   3551.671   71.03342
                          0.0        0.0        0.0        0.0        0.0
  19500     .0195  31.8697285 -882.63041 850.760677 31.8697285 -882.63041 850.760677 423382.633 -269768.62 -153614.01        0.0
                          0.0        0.0 31.6941956 -889.36616 857.671963  423383.18 -269764.92 -153618.26 921.060354 -1747.0381
                   825.977768 914.500134 -1733.3911 818.890949 693151.258 -116154.62 -576996.64 .442541192 -.17487303 -.26766816
                   .344953E-7 -.88992E-6 .844651E-6        0.0    89.6356   2.880535   2.460473   11.79676   10.07646     .24418
                         360.    .053892    .021575    .361274    .402276    .797745    .015382    .008131   3551.671   71.03342
                          0.0        0.0        0.0        0.0        0.0
  20000       .02  188.032388 -945.72366 757.691274 188.032388 -945.72366 757.691274  428660.88 -214334.44 -214326.44        0.0
                          0.0        0.0 189.093262 -953.01721  763.92395 428660.705 -214330.35 -214330.35 1142.11047 -1716.9412
                   574.830687 1133.75605 -1703.4149 569.658885 642995.322 -8.0028305 -642987.32 .428711808 -.10857574 -.32013607
                   .187452E-6  -.9351E-6 .832952E-6        0.0    89.6356   2.880535   2.460473   11.79676   10.07646     .24418
                         360.    .053892    .021575    .361274    .402276    .797745    .015382    .008131   3551.671   71.03342
                          0.0        0.0        0.0        0.0        0.0
  20500     .0205  339.566262 -985.53065  645.96439 339.566262 -985.53065  645.96439 423384.076 -153622.63 -269761.44        0.0
                          0.0        0.0 341.835564  -993.2015 651.365934  423383.18 -153618.26 -269764.92 1335.03706 -1644.5674
                    309.53037 1325.09691  -1631.495 306.398128  577006.71 116138.808 -693145.52 .404326294 -.03960505 -.36472125
                   .359171E-6 -.10819E-5 .665896E-6        0.0    89.6356   2.880535   2.460473   11.79676   10.07646     .24418
                         360.    .053892    .021575    .361274    .402276    .797745    .015382    .008131   3551.671   71.03342
                          0.0        0.0        0.0        0.0        0.0
  21000      .021   482.73834 -1001.0703 518.332004  482.73834 -1001.0703 518.332004 407682.151 -89128.127 -318554.02        0.0
                          0.0        0.0  486.16002 -1008.9295 522.769477 407680.557 -89123.572 -318556.98 1495.08952  -1531.699
                   36.6094574 1483.80868 -1519.4023 35.5936649 496810.278 229425.896 -726236.17 .369984289 .030341174 -.40032546
                   .510309E-6 -.10394E-5 .585977E-6        0.0    89.6356   2.880535   2.460473   11.79676   10.07646     .24418
[...]
                         360.    .053892    .021575    .361274    .402276    .797745    .015382    .008131   3551.671   71.03342
                          0.0        0.0        0.0        0.0        0.0
 113000      .113  -257682.42 -175177.34 432859.751 -257682.42 -175177.34 432859.751 -257682.42 -175177.34 432859.751        0.0
                          0.0        0.0 -264474.52 -149383.85 413858.366 -251960.44 -174352.02 426312.457 -115090.67 -563242.21
                   678332.884 -82505.081 -608037.09 690542.167  -82505.08 -608037.09 690542.167 150.582998 -195.99289 45.4098957
                   -.28983E-3 -.18786E-3 .448555E-3        0.0    89.6356   2.880535   2.460473   11.79676   10.07646     .24418
                         360.    .053892    .021575    .361274    .402276    .797745    .015382    .008131   3551.671   71.03342
                          0.0        0.0        0.0        0.0        0.0
 113500     .1135  -191970.84  -242266.8 434237.637 -191970.84  -242266.8 434237.637 -191970.84  -242266.8 434237.637        0.0
                          0.0        0.0 -200215.97 -239839.71 440055.683 -194607.89 -233465.35  428073.24  39623.736 -679895.39
                   640271.656 50295.9573 -676504.43 626208.476 50295.9582 -676504.43 626208.476 195.694966 -241.25728 45.5623109
                   -.20033E-3 -.26066E-3 .490069E-3        0.0    89.6356   2.880535   2.460473   11.79676   10.07646     .24418
                         360.    .053892    .021575    .361274    .402276    .797745    .015382    .008131   3551.671   71.03342
                          0.0        0.0        0.0        0.0        0.0
 114000      .114  -134095.52 -297551.38 431646.896 -134095.52 -297551.38 431646.896 -134095.52 -297551.38 431646.896        0.0
                          0.0        0.0 -130982.16 -315469.09 446451.254 -132463.44   -286830.  419293.44 184486.927 -761920.34
                   577433.417 163455.859 -729198.27 565742.415 163455.859 -729198.27 565742.414 185.032685  -126.0144 -59.018282
                   -.13367E-3 -.30445E-3 .496328E-3        0.0    89.6356   2.880535   2.460473   11.79676   10.07646     .24418
                         360.    .053892    .021575    .361274    .402276    .797745    .015382    .008131   3551.671   71.03342
                          0.0        0.0        0.0        0.0        0.0
 114500     .1145  -68298.258 -320472.24 388770.499 -68298.258 -320472.24 388770.499 -68298.258 -320472.24 388770.499        0.0
                          0.0        0.0 -67064.906 -343044.71 410109.613 -67057.308 -333131.94 400189.244   275979.8 -753154.32
                   477174.519 252173.982 -709242.74 457068.757 252173.983 -709242.74 457068.757 162.272551 -54.750811 -107.52174
                   -.71324E-4 -.34288E-3 .385076E-3        0.0    89.6356   2.880535   2.460473   11.79676   10.07646     .24418
                         360.    .053892    .021575    .361274    .402276    .797745    .015382    .008131   3551.671   71.03342
                          0.0        0.0        0.0        0.0        0.0
 115000      .115  -3535.9298 -365698.23 369234.157 -3535.9298 -365698.23 369234.157 -3535.9295 -365698.23 369234.157        0.0
                          0.0        0.0 -6844.0769 -364073.44 370917.518 .127058E-4 -371231.06  371231.06 357229.364 -734990.96
                   377761.595 362162.297 -734932.38 372770.087 362162.298 -734932.38 372770.086 178.896527  -91.51592 -87.380607
                   -.40632E-5 -.40913E-3 .402272E-3        0.0    89.6356   2.880535   2.460473   11.79676   10.07646     .24418
                         360.    .053892    .021575    .361274    .402276    .797745    .015382    .008131   3551.671   71.03342
                          0.0        0.0        0.0        0.0        0.0
 115500     .1155   66922.405 -401266.93 334344.529  66922.405 -401266.93 334344.529 66922.4055 -401266.93 334344.529        0.0
                          0.0        0.0 65720.9165 -401842.39 336121.478 67057.3081 -400189.24 333131.936 467563.311 -737963.87
                   270400.562 468189.339 -735611.46 267422.124  468189.34 -735611.46 267422.124 209.758901 -141.95311 -67.805788
                    .71911E-4 -.40381E-3 .375509E-3        0.0    89.6356   2.880535   2.460473   11.79676   10.07646     .24418
                         360.    .053892    .021575    .361274    .402276    .797745    .015382    .008131   3551.671   71.03342
                          0.0        0.0        0.0        0.0        0.0
 116000      .116  137652.949 -431045.56 293392.615 137652.949 -431045.56 293392.615 137652.949 -431045.56 293392.615        0.0
                          0.0        0.0 142908.938 -442138.31 299229.374 132463.443 -419293.44 286829.997 585047.249 -741367.69
                   156320.436 568698.513 -724438.18 155739.666 568698.513 -724438.18 155739.665 189.248433  -35.35355 -153.89488
                   .149992E-3 -.47139E-3 .292271E-3        0.0    89.6356   2.880535   2.460473   11.79676   10.07646     .24418
                         360.    .053892    .021575    .361274    .402276    .797745    .015382    .008131   3551.671   71.03342
                          0.0        0.0        0.0        0.0        0.0
 116500     .1165  193443.831 -431616.55 238172.718 193443.831 -431616.55 238172.718 193443.832 -431616.55 238172.718        0.0
                          0.0        0.0 196814.165 -442661.93 245847.762 194607.888 -428073.24 233465.353 639476.092 -688509.69
                   49033.5965 625060.381 -669789.27  44728.887 625060.381 -669789.27 44728.8863 144.453617 68.3809506 -212.83457
                    .19695E-3 -.47636E-3 .250295E-3        0.0    89.6356   2.880535   2.460473   11.79676   10.07646     .24418
                         360.    .053892    .021575    .361274    .402276    .797745    .015382    .008131   3551.671   71.03342
                          0.0        0.0        0.0        0.0        0.0
 117000      .117  248223.816 -401229.18 153005.365 248223.816 -401229.18 153005.365 248223.817 -401229.18 153005.365        0.0
                          0.0        0.0 246889.182 -409405.89 162516.704 251960.441 -426312.46 174352.016 656295.068 -571922.59
                   -84372.479 649452.998 -554234.55 -95218.451 649452.998 -554234.55 -95218.452 147.702706 10.6550464 -158.35775
                    .26171E-3 -.42171E-3 .159994E-3        0.0    89.6356   2.880535   2.460473   11.79676   10.07646     .24418
                         360.    .053892    .021575    .361274    .402276    .797745    .015382    .008131   3551.671   71.03342
                          0.0        0.0        0.0        0.0        0.0
 117500     .1175  305222.083 -425811.11 120589.024 305222.083 -425811.11 120589.024 305222.083 -425811.11 120589.024        0.0
                          0.0        0.0 309223.377  -429163.2  119939.82 303108.891 -414054.45 110945.554 738386.574 -549103.02
                   -189283.56 731033.189 -546400.13 -184633.06 731033.189 -546400.13 -184633.06 152.406845 -16.388061 -136.01878
                   .322346E-3 -.49404E-3 .127994E-3        0.0    89.6356   2.880535   2.460473   11.79676   10.07646     .24418
                         360.    .053892    .021575    .361274    .402276    .797745    .015382    .008131   3551.671   71.03342
                          0.0        0.0        0.0        0.0        0.0
 118000      .118  353233.269 -399881.87 46648.5982 353233.269 -399881.87 46648.5982 353233.269 -399881.87 46648.5978        0.0
                          0.0        0.0 358473.582 -410597.84 52124.2592 346793.795 -391601.04 44807.2447 769071.423  -462722.1
                   -306349.32 753115.136 -446530.47 -306584.67 753115.136 -446530.46 -306584.67 110.471137 95.9780908 -206.44923
                   .381131E-3 -.44514E-3 .494495E-4        0.0    89.6356   2.880535   2.460473   11.79676   10.07646     .24418
                         360.    .053892    .021575    .361274    .402276    .797745    .015382    .008131   3551.671   71.03342
                          0.0        0.0        0.0        0.0        0.0
 118500     .1185  380997.094 -361800.63 -19196.468 380997.094 -361800.63 -19196.468 380997.094 -361800.63 -19196.469        0.0
                          0.0        0.0 388342.156 -352882.67 -35459.488 381939.485 -359505.12 -22434.368 741224.825 -317423.18
                   -423801.64  742797.72 -342604.16 -400193.56  742797.72 -342604.16 -400193.56  69.635428 164.939723 -234.57515
                   .389493E-3 -.40211E-3 -.20145E-4        0.0    89.6356   2.880535   2.460473   11.79676   10.07646     .24418
                         360.    .053892    .021575    .361274    .402276    .797745    .015382    .008131   3551.671   71.03342
                          0.0        0.0        0.0        0.0        0.0
 119000      .119  407047.614 -311758.33 -95289.281 407047.614 -311758.33 -95289.281 407047.614 -311758.33 -95289.281        0.0
                          0.0        0.0 410534.569 -306306.33 -104228.23 407680.557 -318556.98 -89123.572 716840.904  -202078.1
                    -514762.8 718805.947 -216469.05 -502336.89 718805.947 -216469.05  -502336.9 55.3782541 108.643452 -164.02171
                    .43267E-3 -.37245E-3 -.10384E-3        0.0    89.6356   2.880535   2.460473   11.79676   10.07646     .24418
                         360.    .053892    .021575    .361274    .402276    .797745    .015382    .008131   3551.671   71.03342
                          0.0        0.0        0.0        0.0        0.0
 119500     .1195  423379.026 -266452.77 -156926.25 423379.026 -266452.77 -156926.25 423379.026 -266452.77 -156926.25        0.0
                          0.0        0.0 425096.419 -274575.11 -150521.31  423383.18 -269764.92 -153618.26 699671.531 -124053.81
                   -575617.73 689831.801 -109526.52 -580305.28 689831.801 -109526.52 -580305.28 43.5757308 95.8429529 -139.41868
                   .444474E-3 -.27416E-3 -.17032E-3        0.0    89.6356   2.880535   2.460473   11.79676   10.07646     .24418
                         360.    .053892    .021575    .361274    .402276    .797745    .015382    .008131   3551.671   71.03342
                          0.0        0.0        0.0        0.0        0.0
  % % % % % %   Suspended simulation;  plot data space exhausted;  SPY SPACE is required.   LIMBUF =  840000.
  % % % % % %   Suspended simulation;  plot data space exhausted;  SPY SPACE is required.   LIMBUF =  840000.
  +++  Time-sharing disabled.   Send  user-keyed interrupt to silence alarm.
   Current values.  INDBUF  INDBEG  LIMBUF  MFLUSH  NUMDCD  KCARD1  KCARD2
                    839994      50  840000    1007     230       1     231
Plot timespan now in memory (in sec) = 1.04985997E-01   1.19985000E-01
   ++++  Begin plot-data copy from memory to disk.   MFLUSH, INDBUF, N4, Tbeg,  Tend = 1008  839994       1  -1.00000E+00
1.00000E+19
 120000       .12  433444.477 -230818.23 -202626.24 433444.477 -230818.23 -202626.24 433444.477 -230818.23 -202626.24        0.0
                          0.0        0.0 437864.283 -236945.63 -200918.66 428660.705 -214330.35 -214330.35  674809.91 -36026.972
                   -638782.94 664262.712 -28191.993 -636070.72 664262.711 -28191.992 -636070.72 2.64621432 171.949913 -174.59613
                   .441201E-3 -.23985E-3 -.23043E-3        0.0    89.6356   2.880535   2.460473   11.79676   10.07646     .24418
                         360.    .053892    .021575    .361274    .402276    .797745    .015382    .008131   3551.671   71.03342
                          0.0        0.0        0.0        0.0        0.0

Extrema of output variables follow.   Order and column positioning are the same as for the preceding time-step loop output.
Variable maxima :  439218.951 466948.634 457276.848 439218.951 466948.634 457276.848 439218.951 466948.634 526278.387        0.0
                          0.0        0.0 456095.609  522176.34  494256.91 428660.705 428660.703 428660.703 822963.914  898610.59
                   796419.297 774968.555 820681.102 771673.933 774968.555 820681.103 771673.933 248.123577 418.055947 635.223216
                   .514706E-3 .545546E-3 .531584E-3        0.0    89.6356   2.880535   2.460473   11.79676   10.07646     .24418
                         360.    .053892    .021575    .361274    .402276    .797745    .015382    .008131   3551.671   71.03342
                          0.0        0.0        0.0        0.0        0.0
Times of maxima :     .079505    .066352    .055527    .079505    .066352    .055527    .079505    .066352    .054738        0.0
                          0.0        0.0     .07982    .066518    .055142        0.0    .006667    .113333    .077729    .064536
                      .071312    .097976    .064274    .071546    .097976    .064274    .071546    .075326    .062012    .054166
                      .079492     .06634    .073677        0.0        0.0        0.0        0.0        0.0        0.0        0.0
                          0.0        0.0        0.0        0.0        0.0        0.0        0.0        0.0        0.0        0.0
                          0.0        0.0        0.0        0.0        0.0
Variable minima :  -437414.62 -464385.43 -458840.18 -437414.62 -464385.43 -458840.18 -437414.62 -471022.83 -458840.18        0.0
                          0.0        0.0 -456913.53  -489896.7 -484580.61 -428660.71  -428660.7  -428660.7 -867131.23 -902658.07
                   -802034.32 -788470.87 -885279.78 -780734.21 -788470.87 -965110.84 -780734.21 -267.49541 -529.11174 -328.66401
                   -.51245E-3 -.52094E-3 -.52965E-3        0.0    89.6356   2.880535   2.460473   11.79676   10.07646     .24418
                         360.    .053892    .021575    .361274    .402276    .797745    .015382    .008131   3551.671   71.03342
                          0.0        0.0        0.0        0.0        0.0
Times of minima :     .070127    .057099    .064273    .070127    .057099    .064273    .070127    .056305    .064273        0.0
                          0.0        0.0    .070368    .075819    .062644        .01    .016667    .103333     .06853    .055144
                      .062291    .068242    .055528    .061896    .068242     .05474    .061896    .064083    .054688    .078155
                      .070147    .077344    .064272        0.0        0.0        0.0        0.0        0.0        0.0        0.0
                          0.0        0.0        0.0        0.0        0.0        0.0        0.0        0.0        0.0        0.0
                          0.0        0.0        0.0        0.0        0.0

Blank card terminating all plot cards.            |BLANK PLOT

Memory storage figures for the preceding, now-completed data case.  -------------------------------  Present   Program
A value of  "-9999"  indicates that no figure is available.         28-Feb-22  19:11:36              figure     limit  (name)
     Size List 1.   Number of electric network nodes.                                                   37      6000  (LBUS)
     Size List 2.   Number of electric network branches.                                                39     10000  (LBRNCH)
     Size List 3.   Number of data values in R, L, C tables.                                            45    192000  (LDATA)
     Size List 4.   Number of electric network sources.                                                  3       900  (LEXCT)
     Size List 5.   Storage for [Y] and triangularized [Y].   No. times =    3     Factors =    66     189    420000  (LYMAT)
     Size List 6.   Number of entries in switch table.                  No. flops = 18                  21      1200  (LSWTCH)
     Size List 7.   Number of distinct ALPHANUMERIC data names plus program SPY variables.              25     15000  (LSIZE7)
     Size List 8.   History points of distributed lines.                                              1207    120000  (LPAST)
     Size List 9.   Number of nonlinear elements.                                                        0      2250  (LNONL)
     Size List 10.  Points of nonlinear characteristics.                                                 0      3800  (LCHAR)
     Size List 11.  Number of Type-59 S.M. outputs.                                                      0       720  (LSMOUT)
     Size List 12.  Total number of EMTP output variables.                                              55      2000  (LSIZ12)
     Size List 13.  Working space for batch/SPY plotting.                                            -9999     72800  (LSIZ13)
     Size List 14.  S.M./U.M. connections to TACS.                                                   -9999       510  (LBSTAC)
     Size List 15.  Character storage in bytes for MODELS.                                            3298     90000  (LCTACS)
     Size List 16.  Total number of Type-59 S.M. masses.                                                 0       800  (LIMASS)
     Size List 17.  Number of Type-59 Synchronous machines.                                              0        90  (LSYN)
     Size List 18.  Branch and switch power/energy outputs.                                              0       254  (MAXPE)
     Size List 19.  Total floating-point TACS table space.                                              23    120000  (LTACST)
     Size List 20.  Non-copied recursive convolution data.                                               0    100000  (LFSEM)
     Size List 21.  Total modal/phase [T] matrix storage.                                                9      3000  (LFD)
     Size List 22.  Total recursive convolution history.                                                 0     15000  (LHIST)
     Size List 23.  Giant vectors for renumbering, phasors;  also extrema accumulation.                  93    192000  (LSIZ23)
     Size List 24.  Peak phases of compensation for data.                                                0       120  (LCOMP)
     Size List 25.  Total table space for all U.M usage.                                             -9999     45000  (LSPCUM)
     Size List 26.  Square of max number of coupled phases.                                              9    260000  (LSIZ26)
     Size List 27.  Maximum number of MODELS top variables.                                             44       600  (LSIZ27)
     Size List 28.  MODELS.  Total work space is divided into INTEGER and REAL.  1st, REAL:           1780    210000  (LRTACS)
                             Second  and last,  statistics for INTEGER work space.                    6838         0  (LITACS)
     Size List 29.  RAM disk used by "TAPSAV" table saving (limit is "LABCOM" size LTLABL).          -9999       600  (LSIZ29)
     Size List 30.  Taku Noda frequency-dependent circuits.                                              0        19  (LSIZ30)
Timing figures characterizing central processor (CP) solution speed.  ----------------------------   CP sec  Wait sec  Real sec
     Data input time (through blank card ending branches) ....                                       0.016     0.000     0.016
     Node renumbering and phasor solution  ....                                                      0.016     0.000     0.016
     After phasor solution, but before time-step loop  ....                                          0.016     0.000     0.016
     Integration of equations (time-step loop)  ....                                                 1.078     0.000     1.078
     Plotting or STATISTICS termination overlays ....                                                0.000     0.000     0.000
                                                                                                    ---------------------------
                                                                                          Totals      1.125     0.000     1.125

