   ---   236   cards of disk file read into card cache cells  1   onward.
 Comment card is ignored.      |C   LBUS  LBRNCH   LDATA   LEXCT   LYMAT  LSWTCH
 Limit CIDEAL cards =   200    |CARDS        200 { Limit of CIDEAL will be 2 mor
 1st card (Lists  1-10).       |    6000   10000  192000     900  420000    120
 Comment card is ignored.      |C LSMOUT  LSIZ12  LSIZ13  LBSTAC  LCTACS  LIMASS
 2nd card (Lists 11-20).       |     720    2000   72800     510   90000     80
 Comment card is ignored.      |C    LFD   LHIST  LSIZ23   NCOMP  LSPCUM  LSIZ26
 3rd card (Lists 21-30).       |    3000   15000  192000     120   45000  26000
 4th card (Lists 31-32).       |     200     300     { Optional card for Lists
 Comment card is ignored.      |C  LWORK  LMARTI
 Supplemental offsets.         |  840000     742
 <===> Done with  "/"-card sorting by data class.    Remember that the source file appears different from interpreted input data.
Alternative Transients Program (ATP),  GNU Linux or DOS.  All rights reserved by Can/Am user group of Portland, Oregon, USA.
 Date (dd-mth-yy) and time of day (hh.mm.ss) = 28-Feb-22  19:31:12   Name of disk plot file is  draw6.3\bernal\energizacion1992.pl4
Consult the 860-page ATP Rule Book of the Can/Am EMTP User Group in Portland,  Oregon, USA.  Source code date is 12 August 2008.
Total size of LABCOM tables = 10913436 INTEGER words.  31 VARDIM  List Sizes follow:  6002  10K  192K  900  420K  1200  15K
  120K  2250  3800  720  2K  72800  510  90K  800  90  254  120K  100K  3K  15K  192K  120  45K  260K  600  210K  1100  60  200
--------------------------------------------------+--------------------------------------------------------------------------------
Descriptive interpretation of input data cards.   |  Input data card images are shown below, all 80 columns, character by character
                                                  0         1         2         3         4         5         6         7         8
                                                  012345678901234567890123456789012345678901234567890123456789012345678901234567890
--------------------------------------------------+--------------------------------------------------------------------------------
Comment card.   NUMDCD = 1.                       |C data:C:\ATP\ATPDRAW6.3\BERNAL\ENERGIZACION1992.ATP
Marker card preceding new EMTP data case.         |BEGIN NEW DATA CASE
Comment card.   NUMDCD = 3.                       |C --------------------------------------------------------
Comment card.   NUMDCD = 4.                       |C Generated by ATPDRAW  febrero, lunes 28, 2022
Comment card.   NUMDCD = 5.                       |C A Bonneville Power Administration program
Comment card.   NUMDCD = 6.                       |C by H. K. Høidalen at SEfAS/NTNU - NORWAY 1994-2016
Comment card.   NUMDCD = 7.                       |C --------------------------------------------------------
Comment card.   NUMDCD = 8.                       |C  dT  >< Tmax >< Xopt >< Copt ><Epsiln>
Misc. data.     1.000E-06   1.200E-01   5.000E+01 |   1.E-6     .12     50.
Misc. data.    500    1  0  1  1  0  0  0  0  0   |     500       1       0       1       1       0       0       0       0
  ///  Warning.  Nonzero XOPT or COPT differs from the power frequency of  6.00000000E+01  Hz.   Did the user really want this?
No TACS data,  but MODELS data begins (next).     |MODELS
      Another ordinary MODELS data card.          |OUTPUT
      Another ordinary MODELS data card.          |  AnVol
      Another ordinary MODELS data card.          |  LONG
      Another ordinary MODELS data card.          |  R0F
      Another ordinary MODELS data card.          |  R1F
      Another ordinary MODELS data card.          |  X0F
      Another ordinary MODELS data card.          |  X1F
      Another ordinary MODELS data card.          |  RDIVX
      Another ordinary MODELS data card.          |  RINSER
      Another ordinary MODELS data card.          |  CLOSE1
      Another ordinary MODELS data card.          |  RPpos
      Another ordinary MODELS data card.          |  RPcero
      Another ordinary MODELS data card.          |  LPpos
      Another ordinary MODELS data card.          |  LPcero
      Another ordinary MODELS data card.          |  CPpos
      Another ordinary MODELS data card.          |  CPcero
      Another ordinary MODELS data card.          |  Xp
      Another ordinary MODELS data card.          |  CR
      Another ordinary MODELS data card.          |  SIMET
      Another ordinary MODELS data card.          |  ENC1
      Another ordinary MODELS data card.          |  ENC2
      Another ordinary MODELS data card.          |  ENC1AS
      Another ordinary MODELS data card.          |  ENC2AS
      Another ordinary MODELS data card.          |MODEL DEFAULT
      Another ordinary MODELS data card.          |DATA AnVol,LONG,R0F,R1F,X0F,X1F,RDIVX,RINSER,CLOSE1,RPpos,RPcero,LPpos,LPcero
      Another ordinary MODELS data card.          |OUTPUT o1,o2,o3, o4, o5, o6, o7, o8, o9, o10, o11, o12, o13
      Another ordinary MODELS data card.          |VAR o1,o2,o3, o4, o5, o6, o7, o8, o9, o10, o11, o12, o13
      Another ordinary MODELS data card.          |INIT
      Another ordinary MODELS data card.          |  o1:=AnVol
      Another ordinary MODELS data card.          |  o2:=LONG
      Another ordinary MODELS data card.          |  o3:=R0F
      Another ordinary MODELS data card.          |  o4:=R1F
      Another ordinary MODELS data card.          |  o5:=X0F
      Another ordinary MODELS data card.          |  O6:=X1F
      Another ordinary MODELS data card.          |  o7:=RDIVX
      Another ordinary MODELS data card.          |  o8:=RINSER
      Another ordinary MODELS data card.          |  o9:=CLOSE1
      Another ordinary MODELS data card.          |  o10:=RPpos
      Another ordinary MODELS data card.          |  o11:=RPcero
      Another ordinary MODELS data card.          |  o12:=LPpos
      Another ordinary MODELS data card.          |  o13:=LPcero
      Another ordinary MODELS data card.          |
      Another ordinary MODELS data card.          |ENDINIT
      Another ordinary MODELS data card.          |EXEC
      Another ordinary MODELS data card.          |ENDEXEC
      Another ordinary MODELS data card.          |ENDMODEL
      Another ordinary MODELS data card.          |MODEL DEFAULT1
      Another ordinary MODELS data card.          |DATA CPpos,CPcero,Xp,CR,SIMET,ENC1,ENC2,ENC1AS,ENC2AS
      Another ordinary MODELS data card.          |OUTPUT o1, o2, o3, o4, o5, o6, o7, o8, o9
      Another ordinary MODELS data card.          |VAR o1, o2, o3, o4, o5, o6, o7, o8, o9
      Another ordinary MODELS data card.          |INIT
      Another ordinary MODELS data card.          |  o1:=CPpos
      Another ordinary MODELS data card.          |  o2:=CPcero
      Another ordinary MODELS data card.          |  o3:=Xp
      Another ordinary MODELS data card.          |  o4:=CR
      Another ordinary MODELS data card.          |  o5:=SIMET
      Another ordinary MODELS data card.          |  o6:=ENC1
      Another ordinary MODELS data card.          |  o7:=ENC2
      Another ordinary MODELS data card.          |  o8:=ENC1AS
      Another ordinary MODELS data card.          |  o9:=ENC2AS
      Another ordinary MODELS data card.          |
      Another ordinary MODELS data card.          |ENDINIT
      Another ordinary MODELS data card.          |EXEC
      Another ordinary MODELS data card.          |ENDEXEC
      Another ordinary MODELS data card.          |ENDMODEL
      Another ordinary MODELS data card.          |USE DEFAULT AS DEFAULT
      Another ordinary MODELS data card.          |DATA
      Another ordinary MODELS data card.          |  AnVol:=      0.0
      Another ordinary MODELS data card.          |  LONG:= 191.0402
      Another ordinary MODELS data card.          |  R0F:= 6.191438
      Another ordinary MODELS data card.          |  R1F:= 7.402611
      Another ordinary MODELS data card.          |  X0F:= 29.90645
      Another ordinary MODELS data card.          |  X1F:= 35.75676
      Another ordinary MODELS data card.          |  RDIVX:= 0.207027
      Another ordinary MODELS data card.          |  RINSER:=     360.
      Another ordinary MODELS data card.          |  CLOSE1:= 0.042591
      Another ordinary MODELS data card.          |  RPpos:= 0.025007
      Another ordinary MODELS data card.          |  RPcero:=  0.34277
      Another ordinary MODELS data card.          |  LPpos:= 0.379373
      Another ordinary MODELS data card.          |  LPcero:= 1.069986
      Another ordinary MODELS data card.          |OUTPUT
      Another ordinary MODELS data card.          |  AnVol:=o1
      Another ordinary MODELS data card.          |  LONG:=o2
      Another ordinary MODELS data card.          |  R0F:=o3
      Another ordinary MODELS data card.          |  R1F:=o4
      Another ordinary MODELS data card.          |  X0F:=o5
      Another ordinary MODELS data card.          |  X1F:=o6
      Another ordinary MODELS data card.          |  RDIVX:=o7
      Another ordinary MODELS data card.          |  RINSER:=o8
      Another ordinary MODELS data card.          |  CLOSE1:=o9
      Another ordinary MODELS data card.          |  RPpos:=o10
      Another ordinary MODELS data card.          |  RPcero:=o11
      Another ordinary MODELS data card.          |  LPpos:=o12
      Another ordinary MODELS data card.          |  LPcero:=o13
      Another ordinary MODELS data card.          |ENDUSE
      Another ordinary MODELS data card.          |USE DEFAULT1 AS DEF
      Another ordinary MODELS data card.          |DATA
      Another ordinary MODELS data card.          |  CPpos:= 0.013594
      Another ordinary MODELS data card.          |  CPcero:= 0.005255
      Another ordinary MODELS data card.          |  Xp:= 1885.694
      Another ordinary MODELS data card.          |  CR:= 37.71388
      Another ordinary MODELS data card.          |  SIMET:=      0.0
      Another ordinary MODELS data card.          |  ENC1:=      0.0
      Another ordinary MODELS data card.          |  ENC2:=      0.0
      Another ordinary MODELS data card.          |  ENC1AS:=       1.
      Another ordinary MODELS data card.          |  ENC2AS:=      0.0
      Another ordinary MODELS data card.          |OUTPUT
      Another ordinary MODELS data card.          |  CPpos:=o1
      Another ordinary MODELS data card.          |  CPcero:=o2
      Another ordinary MODELS data card.          |  Xp:=o3
      Another ordinary MODELS data card.          |  CR:=o4
      Another ordinary MODELS data card.          |  SIMET:=o5
      Another ordinary MODELS data card.          |  ENC1:=o6
      Another ordinary MODELS data card.          |  ENC2:=o7
      Another ordinary MODELS data card.          |  ENC1AS:=o8
      Another ordinary MODELS data card.          |  ENC2AS:=o9
      Another ordinary MODELS data card.          |ENDUSE
      Another ordinary MODELS data card.          |RECORD
      Another ordinary MODELS data card.          |  DEFAULT.o1 AS AnVOL
      Another ordinary MODELS data card.          |  DEFAULT.o2 AS LONG
      Another ordinary MODELS data card.          |  DEFAULT.o3 AS R0F
      Another ordinary MODELS data card.          |  DEFAULT.o4 AS R1F
      Another ordinary MODELS data card.          |  DEFAULT.o5 AS X0F
      Another ordinary MODELS data card.          |  DEFAULT.o6 AS X1F
      Another ordinary MODELS data card.          |  DEFAULT.o7 AS RDIVX
      Another ordinary MODELS data card.          |  DEFAULT.o8 AS RINSER
      Another ordinary MODELS data card.          |  DEFAULT.o9 AS CLOSE1
      Another ordinary MODELS data card.          |  DEFAULT.o10 AS RPpos
      Another ordinary MODELS data card.          |  DEFAULT.o11 AS RPcero
      Another ordinary MODELS data card.          |  DEFAULT.o12 AS LPpos
      Another ordinary MODELS data card.          |  DEFAULT.o13 AS LPcero
      Another ordinary MODELS data card.          |  DEF.o1 AS CPpos
      Another ordinary MODELS data card.          |  DEF.o2 AS CPcero
      Another ordinary MODELS data card.          |  DEF.o3 AS Xp
      Another ordinary MODELS data card.          |  DEF.o4 AS CR
      Another ordinary MODELS data card.          |  DEF.o5 AS SIMET
      Another ordinary MODELS data card.          |  DEF.o6 AS ENC1
      Another ordinary MODELS data card.          |  DEF.o7 AS ENC2
      Another ordinary MODELS data card.          |  DEF.o8 AS ENC1AS
      Another ordinary MODELS data card.          |  DEF.o9 AS ENC2AS
Termination of data for Laurent Dube`s MODELS.    |ENDMODELS
Comment card.   NUMDCD = 153.                     |C        1         2         3         4         5         6         7         8
Comment card.   NUMDCD = 154.                     |C 345678901234567890123456789012345678901234567890123456789012345678901234567890
Optional blank card follows last of MODELS data.  |BLANK MODELS
Comment card.   NUMDCD = 156.                     |C < n1 >< n2 ><ref1><ref2>< R  >< L  >< C  >
Comment card.   NUMDCD = 157.                     |C < n1 >< n2 ><ref1><ref2>< R  >< A  >< B  ><Leng><><>0
1st of coupled R-L.   6.19140E+00  9.51952E-02    |51IFUENASB1A              6.191429.906447732
2nd coil. 7.403E+00 1.138E-01 0.000E+00 0.000E+00 |52IFUENBSB1B              7.402635.756764613
Zca, Zcc=-4.037E-01-6.207E-03 6.999E+00 1.076E-01 |53IFUENCSB1C
Series R-L-C.   1.000E+09  0.000E+00  0.000E+00   |  SB1A                      1.E9                                               0
Series R-L-C.   1.000E+09  0.000E+00  0.000E+00   |  SB1B                      1.E9                                               0
Series R-L-C.   1.000E+09  0.000E+00  0.000E+00   |  SB1C                      1.E9                                               0
Series R-L-C.   3.771E+01  6.002E+00  0.000E+00   |  RSNSHA                  37.7141885.7                                         0
Series R-L-C.   3.771E+01  6.002E+00  0.000E+00   |  RSNSHB                  37.7141885.7                                         0
Series R-L-C.   3.771E+01  6.002E+00  0.000E+00   |  RSNSHC                  37.7141885.7                                         0
Series R-L-C.   1.000E+09  0.000E+00  0.000E+00   |  RSNNHA                    1.E9                                               0
Series R-L-C.   1.000E+09  0.000E+00  0.000E+00   |  RSNNHB                    1.E9                                               0
Series R-L-C.   1.000E+09  0.000E+00  0.000E+00   |  RSNNHC                    1.E9                                               0
Series R-L-C.   1.000E+09  0.000E+00  0.000E+00   |  SE2A                      1.E9                                               0
Series R-L-C.   1.000E+09  0.000E+00  0.000E+00   |  SE2B                      1.E9                                               0
Series R-L-C.   1.000E+09  0.000E+00  0.000E+00   |  SE2C                      1.E9                                               0
Series R-L-C.   2.500E+02  0.000E+00  3.000E-10   |  X0001B                    250.       .0003                                   0
Series R-L-C.   2.500E+02  0.000E+00  3.000E-10   |  X0002B                    250.       .0003                                   0
Series R-L-C.   1.000E-06  0.000E+00  0.000E+00   |  X0001ALN1A               1.E-6                                               0
Series R-L-C.   1.000E-06  0.000E+00  0.000E+00   |  SB1A  X0002A             1.E-6                                               0
Series R-L-C.   1.000E-06  0.000E+00  0.000E+00   |  X0001BLN1B               1.E-6                                               0
Series R-L-C.   1.000E-06  0.000E+00  0.000E+00   |  SB1B  X0002B             1.E-6                                               0
Series R-L-C.   1.000E-06  0.000E+00  0.000E+00   |  X0001CLN1C               1.E-6                                               0
Series R-L-C.   1.000E-06  0.000E+00  0.000E+00   |  SB1C  X0002C             1.E-6                                               0
Series R-L-C.   3.600E+02  0.000E+00  0.000E+00   |  XX0005X0002A              360.                                               0
Series R-L-C.   3.600E+02  0.000E+00  0.000E+00   |  XX0003X0002B              360.                                               0
Series R-L-C.   3.600E+02  0.000E+00  0.000E+00   |  XX0004X0002C              360.                                               0
Series R-L-C.   2.500E+02  0.000E+00  3.000E-10   |  X0001A                    250.       .0003                                   0
Series R-L-C.   1.000E+06  0.000E+00  0.000E+00   |  X0001AX0002A              1.E6                                               0
Series R-L-C.   1.000E+06  0.000E+00  0.000E+00   |  X0001BX0002B              1.E6                                               0
Series R-L-C.   1.000E+06  0.000E+00  0.000E+00   |  X0001CX0002C              1.E6                                               0
Series R-L-C.   2.500E+02  0.000E+00  3.000E-10   |  X0002C                    250.       .0003                                   0
Series R-L-C.   2.500E+02  0.000E+00  3.000E-10   |  X0002A                    250.       .0003                                   0
Series R-L-C.   2.500E+02  0.000E+00  3.000E-10   |  X0001C                    250.       .0003                                   0
Series R-L-C.   1.250E+02  0.000E+00  6.000E-10   |  X0001AX0002A              125.       .0006                                   0
Series R-L-C.   1.250E+02  0.000E+00  6.000E-10   |  X0001BX0002B              125.       .0006                                   0
Series R-L-C.   1.250E+02  0.000E+00  6.000E-10   |  X0001CX0002C              125.       .0006                                   0
 3.428E-01 1.070E+00 5.250E-03 8.054E+02 8.078E-04|-1LN1A  VFF2A             .34277  1.07.00525191.04 0 0                         0
 2.501E-02 3.794E-01 1.359E-02 2.981E+02 7.739E-04|-2LN1B  VFF2B             .02501.37937.01359191.04 0 0                         0
3rd or later transposed distributed phase.        |-3LN1C  VFF2C                                                                  0
Blank card ending branches.  IBR, NTOT = 39  31   |BLANK BRANCH
Comment card.   NUMDCD = 198.                     |C < n 1>< n 2>< Tclose ><Top/Tde ><   Ie   ><Vf/CLOP ><  type  >
Switch.  -1.00E+00  1.00E+01  0.00E+00  0.00E+00  |  LN1A  COMPA        -1.       10.                                             0
Switch.  -1.00E+00  1.00E+01  0.00E+00  0.00E+00  |  LN1B  COMPB        -1.       10.                                             0
Switch.  -1.00E+00  1.00E+01  0.00E+00  0.00E+00  |  LN1C  COMPC        -1.       10.                                             0
Switch.  -1.00E+00  1.00E+01  0.00E+00  0.00E+00  |  VFF2A RSNNHA       -1.       10.                                             0
Switch.  -1.00E+00  1.00E+01  0.00E+00  0.00E+00  |  VFF2B RSNNHB       -1.       10.                                             0
Switch.  -1.00E+00  1.00E+01  0.00E+00  0.00E+00  |  VFF2C RSNNHC       -1.       10.                                             0
Switch.   2.00E+00 -1.00E+00  0.00E+00  0.00E+00  |  VFF2A SE2A          2.       -1.                                             0
Switch.   2.00E+00 -1.00E+00  0.00E+00  0.00E+00  |  VFF2B SE2B          2.       -1.                                             0
Switch.   2.00E+00 -1.00E+00  0.00E+00  0.00E+00  |  VFF2C SE2C          2.       -1.                                             0
Switch.   4.26E-02  1.00E+03  0.00E+00  0.00E+00  |  X0001BXX0003.042591229      1.E3                                             0
Switch.   4.26E-02  1.00E+03  0.00E+00  0.00E+00  |  X0001CXX0004.042591229      1.E3                                             0
Switch.   5.01E-02  1.00E+03  0.00E+00  0.00E+00  |  XX0005X0002A.050091229      1.E3                                             0
Switch.   5.01E-02  1.00E+03  0.00E+00  0.00E+00  |  XX0003X0002B.050091229      1.E3                                             0
Switch.   5.01E-02  1.00E+03  0.00E+00  0.00E+00  |  XX0004X0002C.050091229      1.E3                                             0
Switch.   4.26E-02  1.00E+03  0.00E+00  0.00E+00  |  X0001AXX0005.042591229      1.E3                                             0
Permanently-closed switch used for metering.      |  VFUENAIFUENA                                        MEASURING                1
Permanently-closed switch used for metering.      |  VFUENBIFUENB                                        MEASURING                1
Permanently-closed switch used for metering.      |  VFUENCIFUENC                                        MEASURING                1
Permanently-closed switch used for metering.      |  COMPA RSNSHA                                        MEASURING                1
Permanently-closed switch used for metering.      |  COMPB RSNSHB                                        MEASURING                1
Permanently-closed switch used for metering.      |  COMPC RSNSHC                                        MEASURING                1
Blank card ending switches.   KSWTCH = 21.        |BLANK SWITCH
Comment card.   NUMDCD = 221.                     |C < n 1><>< Ampl.  >< Freq.  ><Phase/T0><   A1   ><   T1   >< TSTART >< TSTOP  >
Source.   4.29E+05  5.00E+01  0.00E+00 -1.00E+00  |14VFUENA  428660.705       50.                                     -1.      100.
Source.   4.29E+05  5.00E+01 -1.20E+02 -1.00E+00  |14VFUENB  428660.705       50.     -120.                           -1.      100.
Source.   4.29E+05  5.00E+01 -2.40E+02 -1.00E+00  |14VFUENC  428660.705       50.     -240.                           -1.      100.
Blank card ends electric sources.  KCONST = 3     |BLANK SOURCE
Pi-equivalent branches of distributed circuits are added to the table of List Size 3 between indices  40   and  45.

Sinusoidal steady-state phasor solution, branch by branch.   All flows are away from a bus,  and the real part,  magnitude,  or  "P"
is printed above the imaginary part,  the angle,  or  "Q".   The first solution frequency  =  5.00000000E+01  Hertz.
  Bus K                        Phasor  node  voltage              Phasor  branch  current               Power flow       Power loss
             Bus M         Rectangular            Polar          Rectangular            Polar            P  and  Q        P  and  Q

 IFUENA                    428660.705       428660.705      .42848562883117  .44566014184368      91837.475868569  .73512615635498
                                  0.0              0.0      .12252766182903       15.9581528      -26261.39695082        3.5508785

            SB1A      428661.91428505  428661.91459223      -.4284856288312  .44566014184368      -91836.74074241
                      -16.22828303962       -0.0021691       -.122527661829     -164.0418472      26264.947829282

 IFUENB                  -214330.3525       428660.705      -.1081307466044  .44566014184293      91837.475868366  .73512615635265
                      -371231.0601341     -120.0000000      -.4323432706383     -104.0418472      -26261.39695093        3.5508785

            SB1B      -214345.0112479  428661.91459223      .10813074660439  .44566014184293      -91836.74074221
                      -371223.9932642     -120.0021691      .43234327063831       75.9581528      26264.947829401

 IFUENC                  -214330.3525       428660.705      -.3203548822258  .44566014184409      91837.475868682  .73512615635538
                      371231.06013415      120.0000000      .30981560881047      135.9581528      -26261.39695074        3.5508785

            SB1C      -214316.9030372  428661.91459223      .32035488222578  .44566014184409      -91836.74074253
                      371240.22154724      119.9978309      -.3098156088105      -44.0418472      26264.947829204

 SB1A                 428661.91428505  428661.91459223      .42866191429E-3  .42866191459E-3      91.875518510939  91.875518510939
                      -16.22828303962       -0.0021691      -.1622828304E-7       -0.0021691      -.842797783E-19        0.0000000

            TERRA                 0.0              0.0      -.4286619143E-3  .42866191459E-3                  0.0
                                  0.0              0.0       .1622828304E-7      179.9978309                  0.0

 SB1B                 -214345.0112479  428661.91459223      -.2143450112E-3  .42866191459E-3      91.875518510939  91.875518510939
                      -371223.9932642     -120.0021691      -.3712239933E-3     -120.0021691      .2314121117E-14        0.0000000

            TERRA                 0.0              0.0      .21434501125E-3  .42866191459E-3                  0.0
                                  0.0              0.0      .37122399326E-3       59.9978309                  0.0

 SB1C                 -214316.9030372  428661.91459223       -.214316903E-3  .42866191459E-3      91.875518510939  91.875518510939
                      371240.22154724      119.9978309      .37124022155E-3      119.9978309       -.30218883E-14        0.0000000

            TERRA                 0.0              0.0      .21431690304E-3  .42866191459E-3                  0.0
                                  0.0              0.0      -.3712402215E-3      -60.0021691                  0.0

 RSNSHA               326.94675167472  1441.7859129074      -.7409072745603  .76443635901952       11.01933209141   11.01933209141
                      -1404.226634211      -76.8933049      -.1882003121533     -165.7475420      550.96660457048      550.9666046

            TERRA                 0.0              0.0      .74090727456033  .76443635901952                  0.0
                                  0.0              0.0      .18820031215331       14.2524580                  0.0

 RSNSHB               -1379.569313735  1441.7859129074      .20746738595525  .76443635901952       11.01933209141   11.01933209141
                       418.9691244704      163.1066951      .73574467769459       74.2524580      550.96660457048      550.9666046

            TERRA                 0.0              0.0      -.2074673859553  .76443635901952                  0.0
                                  0.0              0.0      -.7357446776946     -105.7475420                  0.0

 RSNSHC               1052.6225620601  1441.7859129074      .53343988860509  .76443635901952       11.01933209141   11.01933209141
                       985.2575097406       43.1066951      -.5475443655413      -45.7475420      550.96660457049      550.9666046

            TERRA                 0.0              0.0      -.5334398886051  .76443635901952                  0.0
                                  0.0              0.0      .54754436554129      134.2524580                  0.0

 RSNNHA               333.97676582453  1485.4730809738      .33397676582E-6   .1485473081E-5      .00110331513715  .00110331513715
                      -1447.442501168      -77.0072032      -.1447442501E-5      -77.0072032      -.221816753E-19        0.0000000

            TERRA                 0.0              0.0      -.3339767658E-6   .1485473081E-5                  0.0
                                  0.0              0.0      .14474425012E-5      102.9927968                  0.0

 RSNNHB               -1420.510359441  1485.4730809738      -.1420510359E-5   .1485473081E-5      .00110331513715  .00110331513715
                      434.48888710619      162.9927968      .43448888711E-6      162.9927968      .2469630437E-19        0.0000000

            TERRA                 0.0              0.0      .14205103594E-5   .1485473081E-5                  0.0
                                  0.0              0.0      -.4344888871E-6      -17.0072032                  0.0

 RSNNHC               1086.5335936165  1485.4730809738      .10865335936E-5   .1485473081E-5      .00110331513715  .00110331513715
                      1012.9536140618       42.9927968      .10129536141E-5       42.9927968      .2218167531E-19        0.0000000

            TERRA                 0.0              0.0      -.1086533594E-5   .1485473081E-5                  0.0
                                  0.0              0.0      -.1012953614E-5     -137.0072032                  0.0

 X0001B               -1379.569313878  1441.7859129244       -.394899732E-4  .13588512093E-3      .23080957611E-5  .23080957611E-5
                      418.96912405874      163.1066952      -.1300204142E-3     -106.8946548      -.0979586265357       -0.0979586

            TERRA                 0.0              0.0      .39489973201E-4  .13588512093E-3                  0.0
                                  0.0              0.0      .13002041419E-3       73.1053452                  0.0

 X0002B               -214345.0112478   428661.9145918      .03498656109518  .04040043364145      .20402437980194  .20402437980194
                      -371223.9932638     -120.0021691      -.0202023657315      -30.0035191      -8659.063615137    -8659.0636151

            TERRA                 0.0              0.0      -.0349865610952  .04040043364145                  0.0
                                  0.0              0.0      .02020236573151      149.9964809                  0.0

 X0001A               326.94675210266  1441.7859129244      .42794289356607  .43574642517306      12.316259617183  .94937473525E-7
                      -1404.226634129      -76.8933048      .08209644875024       10.8596687      -313.8849881549        0.0000000

            LN1A      326.94675167472  1441.7859129074      -.4279428935661  .43574642517306      -12.31625952225
                      -1404.226634211      -76.8933049      -.0820964487502     -169.1403313      313.88498815485

 SB1A                 428661.91428505  428661.91459223      .42805913835764   .4452501067225      91745.330630886  .99123823816E-7
                      -16.22828303962       -0.0021691      .12252767689347       15.9732435      -26264.94759745        0.0000000

            X0002A    428661.91428462   428661.9145918      -.4280591383576   .4452501067225      -91745.33063079
                      -16.22828316215       -0.0021691      -.1225276768935     -164.0267565      26264.947597455

 X0001B               -1379.569313878  1441.7859129244      -.1428738869436  .43574639779668      12.316304070484  .94937461594E-7
                      418.96912405874      163.1066952       -.411657595123     -109.1403395        -313.88496666              0.0

            LN1B      -1379.569313735  1441.7859129074      .14287388694356  .43574639779668      -12.31630397555
                       418.9691244704      163.1066951      .41165759512296       70.8596605      313.88496665996

 SB1B                 -214345.0112479  428661.91459223      -.1079170033336  .44523555776827       91742.51768468  .99117343666E-7
                      -371223.9932642     -120.0021691      -.4319590516388     -104.0271599      -26263.44343178        0.0000000

            X0002B    -214345.0112478   428661.9145918      .10791700333357  .44523555776827      -91742.51768458
                      -371223.9932638     -120.0021691      .43195905163884       75.9728401      26263.443431782

 X0001C                1052.622561775  1441.7859129245      -.2850690634659  .43574643728964      12.316261314083  .94937478809E-7
                      985.25751007016       43.1066952      .32956120321614      130.8596685      -313.8849968297              0.0

            LN1C      1052.6225620601  1441.7859129074      .28506906346593  .43574643728964      -12.31626121915
                       985.2575097406       43.1066951      -.3295612032161      -49.1403315      313.88499682975

 SB1C                 -214316.9030372  428661.91459223      -.3201421350241   .4452405002742      91742.723727641  .99119553454E-7
                      371240.22154724      119.9978309      .30943192541599      135.9746123      -26266.57258848              0.0

            X0002C    -214316.9030368   428661.9145918      .32014213502407   .4452405002742      -91742.72372754
                      371240.22154693      119.9978309       -.309431925416      -44.0253877      26266.572588482

 XX0005               428661.91428462   428661.9145918                  0.0              0.0                  0.0              0.0
                      -16.22828316215       -0.0021691                  0.0              0.0                  0.0              0.0

            X0002A    428661.91428462   428661.9145918                  0.0              0.0                  0.0
                      -16.22828316215       -0.0021691                  0.0              0.0                  0.0

 XX0003               -214345.0112478   428661.9145918                  0.0              0.0                  0.0              0.0
                      -371223.9932638     -120.0021691                  0.0              0.0                  0.0              0.0

            X0002B    -214345.0112478   428661.9145918                  0.0              0.0                  0.0
                      -371223.9932638     -120.0021691                  0.0              0.0                  0.0

 XX0004               -214316.9030368   428661.9145918                  0.0              0.0                  0.0              0.0
                      371240.22154693      119.9978309                  0.0              0.0                  0.0              0.0

            X0002C    -214316.9030368   428661.9145918                  0.0              0.0                  0.0
                      371240.22154693      119.9978309                  0.0              0.0                  0.0

 X0001A               326.94675210266  1441.7859129244       .1323459683E-3  .13588512093E-3      .23080957611E-5  .23080957611E-5
                      -1404.226634129      -76.8933048      .30810887107E-4       13.1053452      -.0979586265357       -0.0979586

            TERRA                 0.0              0.0      -.1323459683E-3  .13588512093E-3                  0.0
                                  0.0              0.0      -.3081088711E-4     -166.8946548                  0.0

 X0001A               326.94675210266  1441.7859129244      -.4283349675325  .42833721639674       -69.0468310971  91736.385475252
                      -1404.226634129      -76.8933048       -.001387998351     -179.8143365      300.96658564533        0.0000000

            X0002A    428661.91428462   428661.9145918      .42833496753252  .42833721639674      91805.432306349
                      -16.22828316215       -0.0021691      .00138799835097        0.1856635      -300.9665856453

 X0001B               -1379.569313878  1441.7859129244      .21296544193391  .42833721639674      -69.04683109709  91736.385475252
                      418.96912405874      163.1066952      .37164296238782       60.1856635      300.96658564533        0.0000000

            X0002B    -214345.0112478   428661.9145918      -.2129654419339  .42833721639674      91805.432306349
                      -371223.9932638     -120.0021691      -.3716429623878     -119.8143365      -300.9665856453

 X0001C                1052.622561775  1441.7859129245      .21536952559861  .42833721639674       -69.0468310971  91736.385475252
                      985.25751007016       43.1066952      -.3702549640369      -59.8143365      300.96658564533        0.0000000

            X0002C    -214316.9030368   428661.9145918      -.2153695255986  .42833721639674      91805.432306349
                      371240.22154693      119.9978309      .37025496403686      120.1856635      -300.9665856453

 X0002C               -214316.9030368   428661.9145918      -.0349890424876  .04040043364145       .2040243798024   .2040243798024
                      371240.22154693      119.9978309      -.0201980678337     -150.0035191      -8659.063615137    -8659.0636151

            TERRA                 0.0              0.0      .03498904248763  .04040043364145                  0.0
                                  0.0              0.0      .02019806783373       29.9964809                  0.0

 X0002A               428661.91428462   428661.9145918      .24813924446E-5  .04040043364145      .20402437980211  .20402437980211
                      -16.22828316215       -0.0021691      .04040043356524       89.9964809      -8659.063615137    -8659.0636151

            TERRA                 0.0              0.0      -.2481392445E-5  .04040043364145                  0.0
                                  0.0              0.0      -.0404004335652      -90.0035191                  0.0

 X0001C                1052.622561775  1441.7859129245       -.928559951E-4  .13588512093E-3      .23080957611E-5  .23080957611E-5
                      985.25751007016       43.1066952       .9920952708E-4      133.1053452      -.0979586265357       -0.0979586

            TERRA                 0.0              0.0      .92855995097E-4  .13588512093E-3                  0.0
                                  0.0              0.0      -.9920952708E-4      -46.8946548                  0.0

 X0001A               326.94675210266  1441.7859129244       .2597291517E-3  .08073966311505      56.730558175658  .40743082499576
                      -1404.226634129      -76.8933048      -.0807392453563      -89.8156865      13.016357721984   -17291.9012710

            X0002A    428661.91428462   428661.9145918      -.2597291517E-3  .08073966311505      -56.32312735066
                      -16.22828316215       -0.0021691      .08073924535627       90.1843135      -17304.91762868

 X0001B               -1379.569313878  1441.7859129244      -.0700521021368  .08073966311505      56.730558175659   .4074308249955
                      418.96912405874      163.1066952      .04014469063466      150.1843135      13.016357721983   -17291.9012710

            X0002B    -214345.0112478   428661.9145918      .07005210213677  .08073966311505      -56.32312735066
                      -371223.9932638     -120.0021691      -.0401446906347      -29.8156865      -17304.91762868

 X0001C                1052.622561775  1441.7859129245      .06979237298506  .08073966311505      56.730558175659  .40743082499519
                      985.25751007016       43.1066952      .04059455472162       30.1843135      13.016357721985   -17291.9012710

            X0002C    -214316.9030368   428661.9145918      -.0697923729851  .08073966311505      -56.32312735066
                      371240.22154693      119.9978309      -.0405945547216     -149.8156865      -17304.91762868

 LN1A                 326.94675167472  1441.7859129074      1.1688501550919  1.1996962294628      1.2969006572673  1.2957973421304
                      -1404.226634211      -76.8933049      .27029679600155       13.0207765      -864.8515893113     -864.8515893

            VFF2A     333.97676582453  1485.4730809738      -.3339767636E-6  .14854730807E-5      -.0011033151369
                      -1447.442501168      -77.0072032      .14474425014E-5      102.9927967      -.167006665E-11

 LN1B                 -1379.569313735  1441.7859129074      -.3503411856471  1.1996962294628      1.2969006572615  1.2957973421239
                       418.9691244704      163.1066951      -1.147402325528     -106.9792235      -864.8515893113     -864.8515893

            VFF2B     -1420.510359441  1485.4730809738      .14205103603E-5  .14854730817E-5      -.0011033151377
                      434.48888710619      162.9927968      -.4344888867E-6      -17.0072032      .4840577774E-12

 LN1C                 1052.6225620601  1441.7859129074      -.8185089694449  1.1996962294628      1.2969006572671  1.2957973421302
                       985.2575097406       43.1066951      .87710552952622      133.0207765      -864.8515893113     -864.8515893

            VFF2C     1086.5335936165  1485.4730809738      -.1086533593E-5  .14854730807E-5      -.0011033151369
                      1012.9536140618       42.9927968      -.1012953615E-5     -137.0072032      .7806598594E-12
     Total network loss  P-loss  by summing injections =   2.755118327106E+05

Output for steady-state phasor switch currents.
      Node-K    Node-M            I-real            I-imag            I-magn          Degrees        Power            Reactive
      LN1A      COMPA        -7.40907324E-01   -1.88200375E-01    7.64436423E-01    -165.7475    1.10193680E+01    5.50966650E+02
      LN1B      COMPB         2.07467281E-01    7.35744718E-01    7.64436369E-01      74.2525    1.10194129E+01    5.50966610E+02
      LN1C      COMPC         5.33439866E-01   -5.47544325E-01    7.64436314E-01     -45.7475    1.10193400E+01    5.50966572E+02
      VFF2A     RSNNHA        3.33976765E-07   -1.44744250E-06    1.48547308E-06     -77.0072    1.10331514E-03    1.06392452E-12
      VFF2B     RSNNHB       -1.42051036E-06    4.34488887E-07    1.48547308E-06     162.9928    1.10331514E-03   -6.62386503E-13
      VFF2C     RSNNHC        1.08653359E-06    1.01295362E-06    1.48547308E-06      42.9928    1.10331514E-03   -1.22057934E-12
      VFF2A     SE2A              Open              Open              Open             Open          Open              Open
      VFF2B     SE2B              Open              Open              Open             Open          Open              Open
      VFF2C     SE2C              Open              Open              Open             Open          Open              Open
      X0001B    XX0003            Open              Open              Open             Open          Open              Open
      X0001C    XX0004            Open              Open              Open             Open          Open              Open
      XX0005    X0002A            Open              Open              Open             Open          Open              Open
      XX0003    X0002B            Open              Open              Open             Open          Open              Open
      XX0004    X0002C            Open              Open              Open             Open          Open              Open
      X0001A    XX0005            Open              Open              Open             Open          Open              Open
      VFUENA    IFUENA        4.28485629E-01    1.22527662E-01    4.45660142E-01      15.9582    9.18374759E+04   -2.62613970E+04
      VFUENB    IFUENB       -1.08130747E-01   -4.32343271E-01    4.45660142E-01    -104.0418    9.18374759E+04   -2.62613970E+04
      VFUENC    IFUENC       -3.20354882E-01    3.09815609E-01    4.45660142E-01     135.9582    9.18374759E+04   -2.62613970E+04
      COMPA     RSNSHA       -7.40907324E-01   -1.88200375E-01    7.64436423E-01    -165.7475    1.10193680E+01    5.50966650E+02
      COMPB     RSNSHB        2.07467281E-01    7.35744718E-01    7.64436369E-01      74.2525    1.10194129E+01    5.50966610E+02
      COMPC     RSNSHC        5.33439866E-01   -5.47544325E-01    7.64436314E-01     -45.7475    1.10193400E+01    5.50966572E+02

Solution at nodes with known voltage.   Nodes that are shorted together by switches are shown as a group of names, with the printed
result applying to the composite group.   The entry "MVA" is  SQRT( P**2 + Q**2 )  in units of power,  while  "P.F."  is the
associated power factor.
              Node                Source  node  voltage             Injected  source  current              Injected  source  power
              name         Rectangular            Polar          Rectangular            Polar            P  and  Q    MVA and P.F.

               VFUENA
              IFUENA       428660.705       428660.705      .42848562883136  .44566014184381      91837.475868609  95518.495296584
                                  0.0              0.0      .12252766182884       15.9581528      -26261.39695078        0.9614628

               VFUENB
              IFUENB     -214330.3525       428660.705      -.1081307466055  .44566014184299      91837.475868446  95518.495296407
                      -371231.0601341     -120.0000000      -.4323432706381     -104.0418472       -26261.3969507        0.9614628

               VFUENC
              IFUENC     -214330.3525       428660.705      -.3203548822256  .44566014184381      91837.475868619  95518.495296583
                      371231.06013415      120.0000000      .30981560881022      135.9581528      -26261.39695074        0.9614628

  +++  Node  "COMPC "  has no connected linear branches.  Add (to ground) the conductance  G = 1.00000000E-18  mhos.
  +++  Node  "COMPB "  has no connected linear branches.  Add (to ground) the conductance  G = 1.00000000E-18  mhos.
  +++  Node  "COMPA "  has no connected linear branches.  Add (to ground) the conductance  G = 1.00000000E-18  mhos.
Card of names for time-step loop output.          |  LN1A  LN1B  LN1C  COMPA COMPB COMPC SB1A  SB1B  SB1C  SE2A  SE2B  SE2C  VFF2A
Card of names for time-step loop output.          |  VFF2B VFF2C IFUENAIFUENBIFUENC
Card of names for time-step loop output.          |-5VFF2A VFF2B VFF2B VFF2C VFF2C VFF2A LN1A  LN1B  LN1B  LN1C  LN1C  LN1A
Card of names for time-step loop output.          |-5SB1A  SB1B  SB1B  SB1C  SB1C  SB1A
Blank card ending requests for output variables.  |BLANK OUTPUT

Column headings for the  55   EMTP output variables follow.  These are divided among the 5 possible classes as follows ....
  First  27     output variables are electric-network voltage differences (upper voltage minus lower voltage);
  Next   6     output variables are branch currents (flowing from the upper node to the lower node);
  Next   22     output variables belong to MODELS (with "MODELS" an internally-added upper name of pair).
   Step      Time      LN1A       LN1B       LN1C       COMPA      COMPB      COMPC      SB1A       SB1B       SB1C       SE2A
 

                       SE2B       SE2C       VFF2A      VFF2B      VFF2C      IFUENA     IFUENB     IFUENC     VFF2A      VFF2B
                                                                                                               VFF2B      VFF2C

                       VFF2C      LN1A       LN1B       LN1C       SB1A       SB1B       SB1C       VFUENA     VFUENB     VFUENC
                       VFF2A      LN1B       LN1C       LN1A       SB1B       SB1C       SB1A       IFUENA     IFUENB     IFUENC

                       COMPA      COMPB      COMPC      MODELS     MODELS     MODELS     MODELS     MODELS     MODELS     MODELS
                       RSNSHA     RSNSHB     RSNSHC     ANVOL      LONG       R0F        R1F        X0F        X1F        RDIVX

                       MODELS     MODELS     MODELS     MODELS     MODELS     MODELS     MODELS     MODELS     MODELS     MODELS
                       RINSER     CLOSE1     RPPOS      RPCERO     LPPOS      LPCERO     CPPOS      CPCERO     XP         CR

                       MODELS     MODELS     MODELS     MODELS     MODELS
                       SIMET      ENC1       ENC2       ENC1AS     ENC2AS
 ***      Phasor I(0) = -7.4090732E-01                     Switch  "LN1A  "  to  "COMPA "  closed in the steady-state.
 ***      Phasor I(0) =  2.0746728E-01                     Switch  "LN1B  "  to  "COMPB "  closed in the steady-state.
 ***      Phasor I(0) =  5.3343987E-01                     Switch  "LN1C  "  to  "COMPC "  closed in the steady-state.
 ***      Phasor I(0) =  3.3397676E-07                     Switch  "VFF2A "  to  "RSNNHA"  closed in the steady-state.
 ***      Phasor I(0) = -1.4205104E-06                     Switch  "VFF2B "  to  "RSNNHB"  closed in the steady-state.
 ***      Phasor I(0) =  1.0865336E-06                     Switch  "VFF2C "  to  "RSNNHC"  closed in the steady-state.
 ***      Phasor I(0) =  4.2848563E-01                     Switch  "VFUENA"  to  "IFUENA"  closed in the steady-state.
 ***      Phasor I(0) = -1.0813075E-01                     Switch  "VFUENB"  to  "IFUENB"  closed in the steady-state.
 ***      Phasor I(0) = -3.2035488E-01                     Switch  "VFUENC"  to  "IFUENC"  closed in the steady-state.
 ***      Phasor I(0) = -7.4090732E-01                     Switch  "COMPA "  to  "RSNSHA"  closed in the steady-state.
 ***      Phasor I(0) =  2.0746728E-01                     Switch  "COMPB "  to  "RSNSHB"  closed in the steady-state.
 ***      Phasor I(0) =  5.3343987E-01                     Switch  "COMPC "  to  "RSNSHC"  closed in the steady-state.
      0       0.0  326.946752 -1379.5693 1052.62256 326.946752 -1379.5693 1052.62256 428661.914 -214345.01  -214316.9        0.0
                          0.0        0.0 333.976766 -1420.5104 1086.53359 428660.705 -214330.35 -214330.35 1754.48713  -2507.044
                   752.556828 1706.51607 -2432.1919  725.67581 643006.926 -28.108211 -642978.82 .428485629 -.10813075 -.32035488
                   -.74090732 .207467281 .533439866        0.0   191.0402   6.191438   7.402611   29.90645   35.75676    .207027
                         360.    .042591    .025007     .34277    .379373   1.069986    .013594    .005255   1885.694   37.71388
                          0.0        0.0        0.0        1.0        0.0
    500     .5E-3  542.588852 -1428.1247 885.535841 542.588852 -1428.1247 885.535841  423387.08 -153633.93 -269753.15        0.0
                          0.0        0.0 556.294849 -1470.9906 914.695702  423383.18 -153618.26 -269764.92  2027.2854 -2385.6863
                   358.400853 1970.71355 -2313.6605  342.94699 577021.005 116119.228 -693140.23 .404071168  -.0391749 -.36489627
                   -.70234438 .089817276 .612527222        0.0   191.0402   6.191438   7.402611   29.90645   35.75676    .207027
                         360.    .042591    .025007     .34277    .379373   1.069986    .013594    .005255   1885.694   37.71388
                          0.0        0.0        0.0        1.0        0.0
   1000     .1E-2  744.875273 -1441.5172 696.641959 744.875273 -1441.5172 696.641959 407686.815 -89139.745 -318547.07        0.0
                          0.0        0.0 764.925834 -1485.2555 720.329618 407680.557 -89123.572 -318556.98 2250.18129 -2205.5851
                   -44.596216  2186.3925 -2138.1592 -48.233313  496826.56 229407.325 -726233.88 .369691001 .030753577 -.40044458
                   -.64648755 -.03004447 .676532017        0.0   191.0402   6.191438   7.402611   29.90645   35.75676    .207027
                         360.    .042591    .025007     .34277    .379373   1.069986    .013594    .005255   1885.694   37.71388
                          0.0        0.0        0.0        1.0        0.0
   1500     .0015  928.817992 -1419.4136 490.595645 928.817992 -1419.4136 490.595645 381947.948 -22450.648  -359497.3        0.0
                          0.0        0.0 954.704777 -1462.9399 508.235148 381939.485 -22434.368 -359505.12  2417.6447 -1971.1751
                   -446.46963 2348.23163 -1910.0093 -438.22235 404398.596 337046.653 -741445.25 .326196119 .099930645 -.42612676
                   -.57471199 -.14916626 .723878371        0.0   191.0402   6.191438   7.402611   29.90645   35.75676    .207027
                         360.    .042591    .025007     .34277    .379373   1.069986    .013594    .005255   1885.694   37.71388
                          0.0        0.0        0.0        1.0        0.0
   2000      .002  1089.88475 -1362.3567 272.471952 1089.88475 -1362.3567 272.471952 346804.364 44791.2044 -391595.57        0.0
                          0.0        0.0 1120.97829 -1404.6032 283.624936 346793.795 44807.2448 -391601.04 2525.58151 -1688.2282
                   -837.35335 2452.24146 -1634.8287  -817.4128  302013.16 436386.773 -738399.93 .274674697 .166644371 -.44131907
                   -.48878513 -.26461541  .75340048        0.0   191.0402   6.191438   7.402611   29.90645   35.75676    .207027
                         360.    .042591    .025007     .34277    .379373   1.069986    .013594    .005255   1885.694   37.71388
                          0.0        0.0        0.0        1.0        0.0
   2500     .0025   1224.1229  -1271.758 47.6350665  1224.1229  -1271.758 47.6350665 303121.176 110930.214 -414051.39        0.0
                          0.0        0.0 1259.65053  -1311.681 52.0304641 303108.891 110945.554 -414054.45 2571.33152 -1363.7115
                   -1207.6201 2495.88087  -1319.393 -1176.4878 192190.962 524981.603 -717172.57 .216382743 .229258291 -.44564103
                   -.39082288 -.37354859 .764371301        0.0   191.0402   6.191438   7.402611   29.90645   35.75676    .207027
                         360.    .042591    .025007     .34277    .379373   1.069986    .013594    .005255   1885.694   37.71388
                          0.0        0.0        0.0        1.0        0.0
   3000      .003  1328.21753 -1149.8436 -178.37396 1328.21753 -1149.8436 -178.37396 251974.202 174337.721 -426311.92        0.0
                          0.0        0.0 1367.31237  -1186.464 -180.84833 251960.441 174352.016 -426312.46 2553.77641 -1005.6157
                   -1548.1607  2478.0611 -971.46961 -1506.5915 77636.4806 600649.644 -678286.12 .152756002 .286230488 -.43898649
                   -.28323713 -.47328383 .756520789        0.0   191.0402   6.191438   7.402611   29.90645   35.75676    .207027
                         360.    .042591    .025007     .34277    .379373   1.069986    .013594    .005255   1885.694   37.71388
                          0.0        0.0        0.0        1.0        0.0
   3500     .0035  1399.60738  -999.6164 -399.99098 1399.60738  -999.6164 -399.99098 194622.928 233452.385 -428075.31        0.0
                          0.0        0.0   1441.302 -1032.0302 -409.27184 194607.888 233465.353 -428073.24 2473.33215 -622.75832
                   -1850.5738 2399.22378 -599.62542 -1799.5984 -38829.457 661527.697 -622698.24 .085367064 .336155195 -.42152226
                   -.16867702 -.56136512 .730042254        0.0   191.0402   6.191438   7.402611   29.90645   35.75676    .207027
                         360.    .042591    .025007     .34277    .379373   1.069986    .013594    .005255   1885.694   37.71388
                          0.0        0.0        0.0        1.0        0.0
   4000      .004  1436.53115 -824.77377 -611.75738 1436.53115 -824.77377 -611.75738 132479.301 286818.721 -419298.02        0.0
                          0.0        0.0 1479.79476 -852.18068 -627.61408 132463.443 286829.997 -419293.44 2331.97544 -224.56661
                   -2107.4088 2261.30493 -213.01639 -2048.2885 -154339.42 706116.743 -551777.32 .015889929 .377795712 -.39368564
                   -.04996376 -.63562382 .685587589        0.0   191.0402   6.191438   7.402611   29.90645   35.75676    .207027
                         360.    .042591    .025007     .34277    .379373   1.069986    .013594    .005255   1885.694   37.71388
                          0.0        0.0        0.0        1.0        0.0
   4500     .0045  1438.08533 -629.62377 -808.46155 1438.08533 -629.62377 -808.46155 67073.5448 333122.653  -400196.2        0.0
                          0.0        0.0 1481.86868 -651.35697 -830.51171 67057.3081 333131.936 -400189.24 2133.22565 179.154738
                   -2312.3804  2067.7091 178.837782 -2246.5469 -266049.11  733318.85 -467269.74 -.05398268  .41013574 -.35615306
                   .069979945 -.69423147 .624251522        0.0   191.0402   6.191438   7.402611   29.90645   35.75676    .207027
                         360.    .042591    .025007     .34277    .379373   1.069986    .013594    .005255   1885.694   37.71388
                          0.0        0.0        0.0        1.0        0.0
   5000      .005  1404.22839 -418.97002 -985.25836 1404.22839 -418.97002 -985.25836  16.210933 371224.002 -371240.21        0.0
                          0.0        0.0 1447.44298 -434.48915 -1012.9538 -.45661E-7  371231.06 -371231.06 1881.93213  578.46469
                   -2460.3968 1823.19841 566.288341 -2389.4868 -371207.79 742464.215 -371256.42 -.12253286 .432380263  -.3098474
                   .188200405  -.7357447 .547544299        0.0   191.0402   6.191438   7.402611   29.90645   35.75676    .207027
                         360.    .042591    .025007     .34277    .379373   1.069986    .013594    .005255   1885.694   37.71388
                          0.0        0.0        0.0        1.0        0.0
   5500     .0055  1335.79051 -197.99773 -1137.7928 1335.79051 -197.99773 -1137.7928 -67041.447 400184.546  -333143.1        0.0
                          0.0        0.0  1377.3778 -206.92348 -1170.4543 -67057.308 400189.244 -333131.94 1584.30128 963.530839
                   -2547.8321 1533.78824 939.795051 -2473.5833 -467225.99 733327.645 -266101.65 -.18805662 .443973542 -.25591692
                   .301786709 -.75914153 .457354646        0.0   191.0402   6.191438   7.402611   29.90645   35.75676    .207027
                         360.    .042591    .025007     .34277    .379373   1.069986    .013594    .005255   1885.694   37.71388
                          0.0        0.0        0.0        1.0        0.0
   6000      .006  1234.46631 27.8472883 -1262.3136 1234.46631 27.8472883 -1262.3136 -132448.39 419291.251 -286842.86        0.0
                          0.0        0.0 1273.39641  25.737703 -1299.1341 -132463.44  419293.44   -286830. 1247.65871 1324.87182
                   -2572.5305 1206.61902 1290.16088 -2496.7799 -551739.64 706134.116 -154394.48 -.24895104 .444635321 -.19568428
                   .407942124 -.76384574  .35590348        0.0   191.0402   6.191438   7.402611   29.90645   35.75676    .207027
                         360.    .042591    .025007     .34277    .379373   1.069986    .013594    .005255   1885.694   37.71388
                          0.0        0.0        0.0        1.0        0.0
   6500     .0065   1102.7444 253.007117 -1355.7515  1102.7444 253.007117 -1355.7515 -194594.04  428073.63 -233479.59        0.0
                          0.0        0.0 1138.06048 257.764752 -1395.8252 -194607.89  428073.24 -233465.35 880.295725 1653.58998
                   -2533.8857  849.73728 1608.75863 -2458.4959 -622667.67 661553.221 -38885.551 -.30371757  .43434975 -.13063218
                   .504052706 -.74974152 .245688902        0.0   191.0402   6.191438   7.402611   29.90645   35.75676    .207027
                         360.    .042591    .025007     .34277    .379373   1.069986    .013594    .005255   1885.694   37.71388
                          0.0        0.0        0.0        1.0        0.0
   7000      .007  943.868096 471.937671 -1415.8058 943.868096 471.937671 -1415.8058 -251948.03 426315.359 -174367.33        0.0
                          0.0        0.0 974.711409 483.439916 -1458.1513 -251960.44 426312.457 -174352.02 491.271493 1941.59124
                   -2432.8627 471.930426 1887.74344 -2359.6739 -678263.39  600682.69 77580.6976 -.35100892 .413370751 -.06236183
                   .587751713 -.71717621 .129424554        0.0   191.0402   6.191438   7.402611   29.90645   35.75676    .207027
                         360.    .042591    .025007     .34277    .379373   1.069986    .013594    .005255   1885.694   37.71388
                          0.0        0.0        0.0        1.0        0.0
   7500     .0075  761.750871 679.247441 -1440.9983 761.750871 679.247441 -1440.9983 -303098.26  414059.81 -110961.55        0.0
                          0.0        0.0 787.336904 697.223612 -1484.5605 -303108.89 414054.446 -110945.55 90.1132916 2181.78413
                   -2271.8974   82.50343 2120.24575 -2202.7492 -717158.07 525021.358 192136.714 -.38965199 .382210545 .007441441
                   .656978339 -.66695167 .009973221        0.0   191.0402   6.191438   7.402611   29.90645   35.75676    .207027
                         360.    .042591    .025007     .34277    .379373   1.069986    .013594    .005255   1885.694   37.71388
                          0.0        0.0        0.0        1.0        0.0
   8000      .008  560.878681 869.830929 -1430.7096 560.878681 869.830929 -1430.7096 -346785.22  391608.74 -44823.517        0.0
                          0.0        0.0  580.59288 893.830682 -1474.4236  -346793.8  391601.04 -44807.245  -313.2378 2368.25424
                   -2055.0164 -308.95225 2300.54054 -1991.5883 -738393.96 436432.257 301961.706 -.41869977 .341638662 .077061105
                   .710028035 -.60030452 -.10972351        0.0   191.0402   6.191438   7.402611   29.90645   35.75676    .207027
                         360.    .042591    .025007     .34277    .379373   1.069986    .013594    .005255   1885.694   37.71388
                          0.0        0.0        0.0        1.0        0.0
   8500     .0085  346.196472 1038.99597 -1385.1924 346.196472 1038.99597 -1385.1924 -381933.19  359514.97 22418.2234        0.0
                          0.0        0.0 359.549954 1068.43006   -1427.98 -381939.48 359505.117 22434.3679  -708.8801 2496.41006
                     -1787.53  -692.7995 2424.18841 -1731.3889 -741448.16 337096.747 404351.417 -.43744615  .29265869 .144787463
                   .745594404 -.51887576 -.22671848        0.0   191.0402   6.191438   7.402611   29.90645   35.75676    .207027
                         360.    .042591    .025007     .34277    .379373   1.069986    .013594    .005255   1885.694   37.71388
                          0.0        0.0        0.0        1.0        0.0
   9000      .009  122.984924  1182.5799 -1305.5648 122.984924  1182.5799 -1305.5648 -407676.67 318568.731 89107.9363        0.0
                          0.0        0.0 129.650525 1216.72271 -1346.3732 -407680.56 318556.985  89123.572 -1087.0722 2563.09595
                   -1476.0238  -1059.595 2488.14473 -1428.5498  -726245.4 229460.795 496784.604  -.4454155 .236469666 .208945833
                   .762801817 -.42467086   -.338131        0.0   191.0402   6.191438   7.402611   29.90645   35.75676    .207027
                         360.    .042591    .025007     .34277    .379373   1.069986    .013594    .005255   1885.694   37.71388
                          0.0        0.0        0.0        1.0        0.0
   9500     .0095  -103.25158 1297.04311 -1193.7915 -103.25158 1297.04311 -1193.7915 -423381.79 269778.275 153603.518        0.0
                          0.0        0.0 -103.43627 1335.05313 -1231.6169 -423383.18 269764.922 153618.258 -1438.4894 2566.66998
                   -1128.1806 -1400.2947 2490.83464 -1090.5399 -693160.07 116174.757 576985.312 -.44241746 .174458083 .267959375
                   .761226515 -.32000893 -.44121751        0.0   191.0402   6.191438   7.402611   29.90645   35.75676    .207027
                         360.    .042591    .025007     .34277    .379373   1.069986    .013594    .005255   1885.694   37.71388
                          0.0        0.0        0.0        1.0        0.0
  10000       .01  -326.94514 1379.56855 -1052.6234 -326.94514 1379.56855 -1052.6234 -428661.93  214345.02  214316.91        0.0
                          0.0        0.0 -333.97631 1420.51018 -1086.5339 -428660.71 214330.353 214330.352 -1754.4865 2507.04405
                   -752.55756 -1706.5137 2432.19197 -725.67828 -643006.95  28.110711 642978.839 -.42852602 .108150938 .320375079
                   .740907296 -.20746726 -.53343987        0.0   191.0402   6.191438   7.402611   29.90645   35.75676    .207027
                         360.    .042591    .025007     .34277    .379373   1.069986    .013594    .005255   1885.694   37.71388
                          0.0        0.0        0.0        1.0        0.0
  10500     .0105  -542.59101 1428.12582 -885.53481 -542.59101 1428.12582 -885.53481 -423386.92 153633.844 269753.072        0.0
                          0.0        0.0 -556.29246  1470.9894 -914.69693 -423383.18 153618.258 269764.922 -2027.2819 2385.68633
                   -358.40447 -1970.7168 2313.66064  -342.9438 -577020.76 -116119.23 693139.988 -.40408399 .039181351 .364902643
                    .70234449 -.08981719 -.61252719        0.0   191.0402   6.191438   7.402611   29.90645   35.75676    .207027
                         360.    .042591    .025007     .34277    .379373   1.069986    .013594    .005255   1885.694   37.71388
                          0.0        0.0        0.0        1.0        0.0
  11000      .011   -744.8748 1441.51704 -696.64224  -744.8748 1441.51704 -696.64224 -407686.73 89139.7015 318547.026        0.0
                          0.0        0.0 -764.91539 1485.25028 -720.33489 -407680.56  89123.572 318556.985 -2250.1657 2205.58517
                   44.5804978 -2186.3918 2138.15928 48.2325575 -496826.43 -229407.32 726233.754 -.36969153 -.03075329 .400444821
                   .646487647 .030044346 -.67653211        0.0   191.0402   6.191438   7.402611   29.90645   35.75676    .207027
                         360.    .042591    .025007     .34277    .379373   1.069986    .013594    .005255   1885.694   37.71388
                          0.0        0.0        0.0        1.0        0.0
  11500     .0115  -928.81921  1419.4143 -490.59509 -928.81921  1419.4143 -490.59509 -381947.95 22450.6465   359497.3        0.0
                          0.0        0.0 -954.69988 1462.93752 -508.23764 -381939.48 22434.3679 359505.117 -2417.6374 1971.17516
                   446.462246 -2348.2335 1910.00939 438.224112 -404398.59 -337046.65 741445.246  -.3261909 -.09993325 .426124155
                   .574711999 .149166434 -.72387843        0.0   191.0402   6.191438   7.402611   29.90645   35.75676    .207027
                         360.    .042591    .025007     .34277    .379373   1.069986    .013594    .005255   1885.694   37.71388
                          0.0        0.0        0.0        1.0        0.0
  12000      .012  -1089.8889 1362.35879 -272.46993 -1089.8889 1362.35879 -272.46993 -346804.33 -44791.221 391595.553        0.0
                          0.0        0.0 -1120.9745  1404.6014 -283.62685  -346793.8 -44807.245  391601.04 -2525.5759 1688.22825
                   837.347688 -2452.2476 1634.82872  817.41893 -302013.11 -436386.77 738399.884 -.27466446 -.16664948 .441313939
                   .488785126 .264615295 -.75340048        0.0   191.0402   6.191438   7.402611   29.90645   35.75676    .207027
                         360.    .042591    .025007     .34277    .379373   1.069986    .013594    .005255   1885.694   37.71388
                          0.0        0.0        0.0        1.0        0.0
  12500     .0125  -1224.1264 1271.75976 -47.633352 -1224.1264 1271.75976 -47.633352 -303121.25 -110930.18 414051.425        0.0
                          0.0        0.0 -1259.6538 1311.68268 -52.028894 -303108.89 -110945.55 414054.446 -2571.3365 1363.71158
                    1207.6249 -2495.8862 1319.39311 1176.49306 -192191.07  -524981.6  717172.67 -.21637241 -.22926347 .445635882
                   .390822789 .373548425 -.76437133        0.0   191.0402   6.191438   7.402611   29.90645   35.75676    .207027
                         360.    .042591    .025007     .34277    .379373   1.069986    .013594    .005255   1885.694   37.71388
                          0.0        0.0        0.0        1.0        0.0
  13000      .013   -1328.219 1149.84432 178.374635  -1328.219 1149.84432 178.374635 -251974.26 -174337.69 426311.954        0.0
                          0.0        0.0 -1367.3128  1186.4643 180.848498 -251960.44 -174352.02 426312.457 -2553.7771 1005.61581
                    1548.1613 -2478.0633 971.469689 1506.59359 -77636.575 -600649.64 678286.219 -.15275218 -.28623241 .438984595
                   .283236985 .473283701 -.75652083        0.0   191.0402   6.191438   7.402611   29.90645   35.75676    .207027
                         360.    .042591    .025007     .34277    .379373   1.069986    .013594    .005255   1885.694   37.71388
                          0.0        0.0        0.0        1.0        0.0
  13500     .0135  -1399.6047 999.615113 399.989631 -1399.6047 999.615113 399.989631  -194622.9  -233452.4 428075.298        0.0
                          0.0        0.0 -1441.3053 1032.03186 409.273438 -194607.89 -233465.35  428073.24 -2473.3371 622.758417
                   1850.57873 -2399.2199 599.625482 1799.59437 38829.4996  -661527.7 622698.197 -.08537234 -.33615255 .421524889
                    .16867703 .561365127 -.73004227        0.0   191.0402   6.191438   7.402611   29.90645   35.75676    .207027
                         360.    .042591    .025007     .34277    .379373   1.069986    .013594    .005255   1885.694   37.71388
                          0.0        0.0        0.0        1.0        0.0
  14000      .014  -1436.5358 824.776129 611.759692 -1436.5358 824.776129 611.759692 -132479.25 -286818.75 419297.994        0.0
                          0.0        0.0 -1479.8048 852.185737 627.619085 -132463.44   -286830.  419293.44 -2331.9906 224.566652
                   2107.42391  -2261.312 213.016437 2048.29551 154339.504 -706116.74 551777.239 -.01588966 -.37779583 .393685492
                   .049963743 .635623844 -.68558759        0.0   191.0402   6.191438   7.402611   29.90645   35.75676    .207027
                         360.    .042591    .025007     .34277    .379373   1.069986    .013594    .005255   1885.694   37.71388
                          0.0        0.0        0.0        1.0        0.0
  14500     .0145  -1438.0825 629.622411 808.460127 -1438.0825 629.622411 808.460127 -67073.506 -333122.67 400196.178        0.0
                          0.0        0.0 -1481.8688 651.357052 830.511729 -67057.308 -333131.94 400189.244 -2133.2258 -179.15468
                   2312.38051 -2067.7049 -178.83772 2246.54266 266049.166 -733318.85 467269.684 .053981704 -.41013524 .356153538
                   -.06997994 .694231481 -.62425154        0.0   191.0402   6.191438   7.402611   29.90645   35.75676    .207027
                         360.    .042591    .025007     .34277    .379373   1.069986    .013594    .005255   1885.694   37.71388
                          0.0        0.0        0.0        1.0        0.0
  % % % % % %   Suspended simulation;  plot data space exhausted;  SPY SPACE is required.   LIMBUF =  840000.
  % % % % % %   Suspended simulation;  plot data space exhausted;  SPY SPACE is required.   LIMBUF =  840000.
  +++  Time-sharing disabled.   Send  user-keyed interrupt to silence alarm.
   Current values.  INDBUF  INDBEG  LIMBUF  MFLUSH  NUMDCD  KCARD1  KCARD2
                    839994      50  840000    1000     230       1     231
Plot timespan now in memory (in sec) = 0.00000000E+00   1.49990000E-02
   ++++  Begin plot-data copy from memory to disk.   MFLUSH, INDBUF, N4, Tbeg,  Tend = 1001  839994       1  -1.00000E+00
1.00000E+19
  15000      .015  -1404.2269   418.9693 985.257587 -1404.2269   418.9693 985.257587 -16.223088   -371224. 371240.219        0.0
                          0.0        0.0 -1447.4462 434.490765 1012.95543 -.61533E-6 -371231.06  371231.06  -1881.937 -578.46467
                   2460.40163 -1823.1962 -566.28829 2389.48447 371207.773 -742464.21 371256.442 .122527808 -.43237774 .309849932
                   -.18820028 .735744724 -.54754439        0.0   191.0402   6.191438   7.402611   29.90645   35.75676    .207027
                         360.    .042591    .025007     .34277    .379373   1.069986    .013594    .005255   1885.694   37.71388
                          0.0        0.0        0.0        1.0        0.0
  15500     .0155   -1335.788 197.996452 1137.79153  -1335.788 197.996452 1137.79153 67041.4699 -400184.56 333143.088        0.0
                          0.0        0.0 -1377.3755 206.922314 1170.45319 67057.3081 -400189.24 333131.936 -1584.2978 -963.53088
                   2547.82869 -1533.7844 -939.79508 2473.57951 467226.027 -733327.65 266101.618 .188054762 -.44397261 .255917845
                   -.30178681 .759141542 -.45735484        0.0   191.0402   6.191438   7.402611   29.90645   35.75676    .207027
                         360.    .042591    .025007     .34277    .379373   1.069986    .013594    .005255   1885.694   37.71388
                          0.0        0.0        0.0        1.0        0.0
  16000      .016  -1234.4662 -27.847334  1262.3135 -1234.4662 -27.847334  1262.3135 132448.369 -419291.24 286842.874        0.0
                          0.0        0.0 -1273.3948 -25.738464 1299.13331 132463.443 -419293.44 286829.997 -1247.6564 -1324.8718
                   2572.52816 -1206.6188 -1290.1608 2496.77966 551739.611 -706134.12 154394.505 .248950633 -.44463512 .195684489
                    -.4079422 .763845751 -.35590359        0.0   191.0402   6.191438   7.402611   29.90645   35.75676    .207027
                         360.    .042591    .025007     .34277    .379373   1.069986    .013594    .005255   1885.694   37.71388
                          0.0        0.0        0.0        1.0        0.0
  16500     .0165   -1102.746 -253.00629 1355.75232  -1102.746 -253.00629 1355.75232 194593.975  -428073.6 233479.623        0.0
                          0.0        0.0 -1138.0563 -257.76684 1395.82314 194607.888 -428073.24 233465.353 -880.28946   -1653.59
                   2533.87945 -849.73973 -1608.7586 2458.49835 622667.573 -661553.22 38885.6482 .303719261 -.43435061  .13063135
                   -.50405268 .749741546 -.24568884        0.0   191.0402   6.191438   7.402611   29.90645   35.75676    .207027
                         360.    .042591    .025007     .34277    .379373   1.069986    .013594    .005255   1885.694   37.71388
                          0.0        0.0        0.0        1.0        0.0
  17000      .017  -943.86896 -471.93723 1415.80619 -943.86896 -471.93723 1415.80619 251948.012 -426315.35 174367.339        0.0
                          0.0        0.0 -974.69826 -483.44649 1458.14475 251960.441 -426312.46 174352.016 -491.25177 -1941.5912
                   2432.84302 -471.93173 -1887.7434 2359.67515 678263.363 -600682.69 -77580.672 .351008453 -.41337052 .062362069
                   -.58775163 .717176258 -.12942457        0.0   191.0402   6.191438   7.402611   29.90645   35.75676    .207027
                         360.    .042591    .025007     .34277    .379373   1.069986    .013594    .005255   1885.694   37.71388
                          0.0        0.0        0.0        1.0        0.0
  17500     .0175  -761.75369 -679.24603 1440.99972 -761.75369 -679.24603 1440.99972 303098.253 -414059.81 110961.552        0.0
                          0.0        0.0 -787.33839 -697.22286 1484.56125 303108.891 -414054.45 110945.554 -90.115526 -2181.7841
                   2271.89964 -82.507666 -2120.2457 2202.75341 717158.059 -525021.36  -192136.7 .389654286  -.3822117 -.00744259
                   -.65697829  .66695168 -.00997339        0.0   191.0402   6.191438   7.402611   29.90645   35.75676    .207027
                         360.    .042591    .025007     .34277    .379373   1.069986    .013594    .005255   1885.694   37.71388
                          0.0        0.0        0.0        1.0        0.0
  18000      .018  -560.87829 -869.83114 1430.70943 -560.87829 -869.83114 1430.70943 346785.236 -391608.75 44823.5107        0.0
                          0.0        0.0 -580.58956 -893.83234  1474.4219 346793.795 -391601.04 44807.2448 313.242784 -2368.2542
                   2055.01146 308.952853 -2300.5406 1991.58771 738393.983 -436432.26 -301961.73 .418704517 -.34164103 -.07706348
                   -.71002805 .600304494 .109723437        0.0   191.0402   6.191438   7.402611   29.90645   35.75676    .207027
                         360.    .042591    .025007     .34277    .379373   1.069986    .013594    .005255   1885.694   37.71388
                          0.0        0.0        0.0        1.0        0.0
  18500     .0185   -346.1941 -1038.9972 1385.19126  -346.1941 -1038.9972 1385.19126   381933.2 -359514.97 -22418.227        0.0
                          0.0        0.0 -359.55095 -1068.4296 1427.98051 381939.485 -359505.12 -22434.368 708.878603 -2496.4101
                   1787.53147  692.80307 -2424.1884 1731.38536 741448.173 -337096.75 -404351.43 .437446169  -.2926587 -.14478747
                   -.74559441 .518875983 .226718427        0.0   191.0402   6.191438   7.402611   29.90645   35.75676    .207027
                         360.    .042591    .025007     .34277    .379373   1.069986    .013594    .005255   1885.694   37.71388
                          0.0        0.0        0.0        1.0        0.0
  19000      .019  -122.98585 -1182.5795 1305.56531 -122.98585 -1182.5795 1305.56531 407676.701 -318568.75 -89107.953        0.0
                          0.0        0.0 -129.65397  -1216.721 1346.37498 407680.557 -318556.98 -89123.572 1087.06704  -2563.096
                   1476.02895 1059.59362 -2488.1448 1428.55116 726245.449 -229460.79 -496784.65 .445416122 -.23646997 -.20894615
                   -.76280183 .424670806 .338130912        0.0   191.0402   6.191438   7.402611   29.90645   35.75676    .207027
                         360.    .042591    .025007     .34277    .379373   1.069986    .013594    .005255   1885.694   37.71388
                          0.0        0.0        0.0        1.0        0.0
  19500     .0195  103.253624 -1297.0442 1193.79053 103.253624 -1297.0442 1193.79053 423381.842  -269778.3 -153603.54        0.0
                          0.0        0.0 103.433519 -1335.0518 1231.61825  423383.18 -269764.92 -153618.26 1438.48529   -2566.67
                   1128.18473 1400.29778 -2490.8347 1090.53691 693160.141 -116174.76 -576985.38 .442416614 -.17445765 -.26795896
                   -.76122654 .320008931 .441217704        0.0   191.0402   6.191438   7.402611   29.90645   35.75676    .207027
                         360.    .042591    .025007     .34277    .379373   1.069986    .013594    .005255   1885.694   37.71388
                          0.0        0.0        0.0        1.0        0.0
  20000       .02  326.946532 -1379.5693 1052.62273 326.946532 -1379.5693 1052.62273 428661.923 -214345.02 -214316.91        0.0
                          0.0        0.0 333.975671 -1420.5099 1086.53421 428660.705 -214330.35 -214330.35 1754.48556 -2507.0441
                   752.558542  1706.5158  -2432.192   725.6762  643006.94 -28.110642 -642978.83 .428524919 -.10815039 -.32037453
                   -.74090732 .207467434 .533440003        0.0   191.0402   6.191438   7.402611   29.90645   35.75676    .207027
                         360.    .042591    .025007     .34277    .379373   1.069986    .013594    .005255   1885.694   37.71388
                          0.0        0.0        0.0        1.0        0.0
  20500     .0205  542.593101 -1428.1269 885.533801 542.593101 -1428.1269 885.533801 423386.924 -153633.85 -269753.08        0.0
                          0.0        0.0 556.294421 -1470.9904 914.695994  423383.18 -153618.26 -269764.92 2027.28484 -2385.6864
                   358.401574    1970.72 -2313.6607 342.940699 577020.772 116119.228   -693140. .404081118 -.03917991 -.36490121
                   -.70234448 .089817372  .61252722        0.0   191.0402   6.191438   7.402611   29.90645   35.75676    .207027
                         360.    .042591    .025007     .34277    .379373   1.069986    .013594    .005255   1885.694   37.71388
                          0.0        0.0        0.0        1.0        0.0
  21000      .021  744.874808 -1441.5171  696.64227 744.874808 -1441.5171  696.64227 407686.716 -89139.695 -318547.02        0.0
                          0.0        0.0 764.914866 -1485.2501 720.335195 407680.557 -89123.572 -318556.98 2250.16493 -2205.5853
                   -44.579671 2186.39189 -2138.1593 -48.232538 496826.412 229407.325 -726233.74  .36968805 .030755028 -.40044308
                   -.64648767 -.03004448 .676532046        0.0   191.0402   6.191438   7.402611   29.90645   35.75676    .207027
[...]
                         360.    .042591    .025007     .34277    .379373   1.069986    .013594    .005255   1885.694   37.71388
                          0.0        0.0        0.0        1.0        0.0
 113000      .113  -240248.62  -172111.7 412360.317 -240248.62  -172111.7 412360.317 -240248.62  -172111.7 412360.317        0.0
                          0.0        0.0 -242981.14 -181344.68  424325.82 -251960.44 -174352.02 426312.457 -61636.468  -605670.5
                   667306.964 -68136.914 -584472.02 652608.932 -68136.914 -584472.02 652608.932 9.02873733 -36.798835 27.7700986
                   -251.60756 279.036454  -27.42886        0.0   191.0402   6.191438   7.402611   29.90645   35.75676    .207027
                         360.    .042591    .025007     .34277    .379373   1.069986    .013594    .005255   1885.694   37.71388
                          0.0        0.0        0.0        1.0        0.0
 113500     .1135   -193710.4 -235814.37 429524.773  -193710.4 -235814.37 429524.773  -193710.4 -235814.37 429524.773        0.0
                          0.0        0.0 -193278.36 -242825.46 436103.818 -194607.89 -233465.35  428073.24 49547.1077 -678929.28
                   629382.173  42103.965 -665339.14 623235.178 42103.9651 -665339.14 623235.178 22.0745569 -31.828372 9.75381566
                   -269.67756 261.094847 8.58271131        0.0   191.0402   6.191438   7.402611   29.90645   35.75676    .207027
                         360.    .042591    .025007     .34277    .379373   1.069986    .013594    .005255   1885.694   37.71388
                          0.0        0.0        0.0        1.0        0.0
 114000      .114  -130492.02 -284904.63 415396.647 -130492.02 -284904.63 415396.647 -130492.02 -284904.63 415396.647        0.0
                          0.0        0.0 -160559.67 -296372.21 456931.884 -132463.44   -286830.  419293.44 135812.541  -753304.1
                   617491.555 154412.616 -700301.28 545888.663 154412.616 -700301.28 545888.663 6.84069621 -26.968034 20.1273388
                   -282.18184  238.51782 43.6639866        0.0   191.0402   6.191438   7.402611   29.90645   35.75676    .207027
                         360.    .042591    .025007     .34277    .379373   1.069986    .013594    .005255   1885.694   37.71388
                          0.0        0.0        0.0        1.0        0.0
 114500     .1145  -73167.463 -331620.26 404787.727 -73167.463 -331620.26 404787.727 -73167.463 -331620.26 404787.726        0.0
                          0.0        0.0 -74320.414 -342084.85  416405.26 -67057.308 -333131.94 400189.244 267764.432 -758490.11
                   490725.674 258452.801 -736407.99 477955.189 258452.801 -736407.99 477955.189 47.6264719 -12.287577 -35.338894
                   -290.39671 211.669059 78.7276356        0.0   191.0402   6.191438   7.402611   29.90645   35.75676    .207027
                         360.    .042591    .025007     .34277    .379373   1.069986    .013594    .005255   1885.694   37.71388
                          0.0        0.0        0.0        1.0        0.0
 115000      .115  -476.08316 -374271.94  374748.02 -476.08316 -374271.94  374748.02 -476.08297 -374271.94 374748.019        0.0
                          0.0        0.0 -16532.927  -386041.3 402574.232 .127058E-4 -371231.06  371231.06 369508.378 -788615.54
                   419107.159 373795.853 -749019.96 375224.103 373795.853 -749019.96 375224.102  95.985235 -5.7206393 -90.264595
                   -293.23583 181.536797 111.699032        0.0   191.0402   6.191438   7.402611   29.90645   35.75676    .207027
                         360.    .042591    .025007     .34277    .379373   1.069986    .013594    .005255   1885.694   37.71388
                          0.0        0.0        0.0        1.0        0.0
 115500     .1155  58950.5817 -404854.93 345904.344 58950.5817 -404854.93 345904.344 58950.5819 -404854.93 345904.344        0.0
                          0.0        0.0 46366.9259 -419057.74 372690.811 67057.3081 -400189.24 333131.936 465424.663 -791748.55
                   326323.885 463805.508 -750759.27 286953.763 463805.508 -750759.27 286953.762 84.9568431 3.25302552 -88.209868
                   -289.36761 148.650854 140.716724        0.0   191.0402   6.191438   7.402611   29.90645   35.75676    .207027
                         360.    .042591    .025007     .34277    .379373   1.069986    .013594    .005255   1885.694   37.71388
                          0.0        0.0        0.0        1.0        0.0
 116000      .116  129986.237 -423014.49  293028.25 129986.237 -423014.49  293028.25 129986.237 -423014.49  293028.25        0.0
                          0.0        0.0 144098.027 -437998.18 293900.155 132463.443 -419293.44 286829.997 582096.209 -731898.34
                   149802.128 553000.724 -716042.74 163042.014 553000.724 -716042.74 163042.013 114.573699 32.1584397 -146.73214
                   -280.76803 113.477784 167.290242        0.0   191.0402   6.191438   7.402611   29.90645   35.75676    .207027
                         360.    .042591    .025007     .34277    .379373   1.069986    .013594    .005255   1885.694   37.71388
                          0.0        0.0        0.0        1.0        0.0
 116500     .1165   209607.05 -435448.56  225841.51  209607.05 -435448.56  225841.51  209607.05 -435448.56 225841.509        0.0
                          0.0        0.0 201643.039 -454705.76 253062.717 194607.888 -428073.24 233465.353 656348.795 -707768.47
                   51419.6788  645055.61 -661290.07 16234.4595  645055.61 -661290.07  16234.459 99.3188689 56.5749712 -155.89384
                    -266.0329 77.3244247 188.708471        0.0   191.0402   6.191438   7.402611   29.90645   35.75676    .207027
                         360.    .042591    .025007     .34277    .379373   1.069986    .013594    .005255   1885.694   37.71388
                          0.0        0.0        0.0        1.0        0.0
 117000      .117  258846.248 -431084.42 172238.174 258846.248 -431084.42 172238.174 258846.248 -431084.42 172238.174        0.0
                          0.0        0.0 271724.638 -449526.98 177802.343 251960.441 -426312.46 174352.016 721251.619 -627329.32
                   -93922.295 689930.671  -603322.6 -86608.074 689930.671  -603322.6 -86608.074 33.6860918 75.7941272 -109.48022
                   -245.38447 41.0733684 204.311074        0.0   191.0402   6.191438   7.402611   29.90645   35.75676    .207027
                         360.    .042591    .025007     .34277    .379373   1.069986    .013594    .005255   1885.694   37.71388
                          0.0        0.0        0.0        1.0        0.0
 117500     .1175  307603.496 -418996.38 111392.881 307603.496 -418996.38 111392.881 307603.496 -418996.38 111392.881        0.0
                          0.0        0.0 326788.826 -433397.67 106608.841 303108.891 -414054.45 110945.554 760186.492 -540006.51
                   -220179.98 726599.872 -530389.26 -196210.61 726599.872 -530389.26 -196210.62 20.9580002 108.937805 -129.89581
                   -221.26249 5.24085055 216.021629        0.0   191.0402   6.191438   7.402611   29.90645   35.75676    .207027
                         360.    .042591    .025007     .34277    .379373   1.069986    .013594    .005255   1885.694   37.71388
                          0.0        0.0        0.0        1.0        0.0
 118000      .118   358882.33 -397680.22 38797.8875  358882.33 -397680.22 38797.8875  358882.33 -397680.22 38797.8873        0.0
                          0.0        0.0 349770.837 -415274.98 65504.1428 346793.795 -391601.04 44807.2447 765045.817 -480779.12
                   -284266.69 756562.547  -436478.1 -320084.44 756562.547  -436478.1 -320084.44  -14.61063 129.631533  -115.0209
                   -192.81168 -28.810393 221.622084        0.0   191.0402   6.191438   7.402611   29.90645   35.75676    .207027
                         360.    .042591    .025007     .34277    .379373   1.069986    .013594    .005255   1885.694   37.71388
                          0.0        0.0        0.0        1.0        0.0
 118500     .1185  376468.757 -362032.35  -14436.41 376468.757 -362032.35  -14436.41 376468.757 -362032.35 -14436.411        0.0
                          0.0        0.0 393077.702 -374353.73 -18723.975 381939.485 -359505.12 -22434.368  767431.43 -355629.75
                   -411801.68 738501.103 -347595.94 -390905.17 738501.103 -347595.94 -390905.17 -40.796895 136.158955  -95.36206
                   -161.32118 -60.224573 221.545698        0.0   191.0402   6.191438   7.402611   29.90645   35.75676    .207027
                         360.    .042591    .025007     .34277    .379373   1.069986    .013594    .005255   1885.694   37.71388
                          0.0        0.0        0.0        1.0        0.0
 119000      .119   406957.03 -320150.37 -86806.662  406957.03 -320150.37 -86806.662  406957.03 -320150.37 -86806.663        0.0
                          0.0        0.0 407337.001 -329872.25 -77464.753 407680.557 -318556.98 -89123.572 737209.249  -252407.5
                   -484801.75 727107.397 -233343.71 -493763.69 727107.397  -233343.7 -493763.69 -26.155001  152.46029 -126.30529
                   -128.17186 -88.688924 216.860788        0.0   191.0402   6.191438   7.402611   29.90645   35.75676    .207027
                         360.    .042591    .025007     .34277    .379373   1.069986    .013594    .005255   1885.694   37.71388
                          0.0        0.0        0.0        1.0        0.0
 119500     .1195  425637.931 -273707.35 -151930.58 425637.931 -273707.35 -151930.58 425637.931 -273707.35 -151930.58        0.0
                          0.0        0.0 420276.446 -285611.06 -134665.38  423383.18 -269764.92 -153618.26 705887.511 -150945.68
                   -554941.83 699345.286 -121776.78 -577568.51 699345.285 -121776.78 -577568.51 -23.722248 163.458648  -139.7364
                   -93.166807 -113.22869 206.395525        0.0   191.0402   6.191438   7.402611   29.90645   35.75676    .207027
                         360.    .042591    .025007     .34277    .379373   1.069986    .013594    .005255   1885.694   37.71388
                          0.0        0.0        0.0        1.0        0.0
  % % % % % %   Suspended simulation;  plot data space exhausted;  SPY SPACE is required.   LIMBUF =  840000.
  % % % % % %   Suspended simulation;  plot data space exhausted;  SPY SPACE is required.   LIMBUF =  840000.
  +++  Time-sharing disabled.   Send  user-keyed interrupt to silence alarm.
   Current values.  INDBUF  INDBEG  LIMBUF  MFLUSH  NUMDCD  KCARD1  KCARD2
                    839994      50  840000    1007     230       1     231
Plot timespan now in memory (in sec) = 1.04985997E-01   1.19985000E-01
   ++++  Begin plot-data copy from memory to disk.   MFLUSH, INDBUF, N4, Tbeg,  Tend = 1008  839994       1  -1.00000E+00
1.00000E+19
 120000       .12  425352.394 -215772.88 -209579.51 425352.394 -215772.88 -209579.51 425352.393 -215772.88 -209579.51        0.0
                          0.0        0.0 444234.633 -224698.73 -219535.91 428660.705 -214330.35 -214330.35 668933.361 -5162.8228
                   -663770.54 641125.276 -6193.3717  -634931.9 641125.276 -6193.3711  -634931.9 -20.641729  165.01582 -144.37409
                   -57.410256 -133.17547 190.585724        0.0   191.0402   6.191438   7.402611   29.90645   35.75676    .207027
                         360.    .042591    .025007     .34277    .379373   1.069986    .013594    .005255   1885.694   37.71388
                          0.0        0.0        0.0        1.0        0.0

Extrema of output variables follow.   Order and column positioning are the same as for the preceding time-step loop output.
Variable maxima :  463335.373 438922.197 470112.187 463335.373 438922.197 470112.187 463335.372 444794.027 470112.188        0.0
                          0.0        0.0 500102.514 451966.284 520161.467 428660.705 428660.703 428660.703 853931.156 808908.103
                   901058.578 793013.525 786557.783 876133.816 793013.525 887693.763 876133.816 365.391254  436.08697 253.525777
                    163.10176  341.20433 222.646923        0.0   191.0402   6.191438   7.402611   29.90645   35.75676    .207027
                         360.    .042591    .025007     .34277    .379373   1.069986    .013594    .005255   1885.694   37.71388
                          0.0        0.0        0.0        1.0        0.0
Times of maxima :     .059646    .106561    .052128    .059646    .106561    .052128    .059646    .047312    .052128        0.0
                          0.0        0.0    .058875    .106576    .052862        0.0    .006667    .113333    .058849     .04512
                      .051393    .058105     .06452    .052109    .058105    .044332    .052109    .043083    .044175    .068951
                      .105024    .051603    .098195        0.0        0.0        0.0        0.0        0.0        0.0        0.0
                          0.0        0.0        0.0        0.0        0.0        0.0        0.0        0.0        0.0        0.0
                          0.0        0.0        0.0        0.0        0.0
Variable minima :  -473897.44 -441912.15  -477746.9 -473897.44 -441912.15  -477746.9 -473897.44 -441912.15 -545229.73        0.0
                          0.0        0.0 -511925.82 -463382.82 -506414.62 -428660.71  -428660.7  -428660.7 -809014.74 -828149.58
                   -881272.49 -776679.63 -776820.48 -803172.67 -776679.63 -776820.48 -803172.67 -396.71632 -70.772671 -649.11266
                   -326.33627 -152.25675 -240.20395        0.0   191.0402   6.191438   7.402611   29.90645   35.75676    .207027
                         360.    .042591    .025007     .34277    .379373   1.069986    .013594    .005255   1885.694   37.71388
                          0.0        0.0        0.0        1.0        0.0
Times of minima :     .070536    .076714    .063494    .070536    .076714    .063494    .070536    .076714    .044306        0.0
                          0.0        0.0    .070048    .076598    .063753        .01    .016667    .103333    .088465    .075092
                        .0814    .088052    .075012    .082072    .088052    .075012    .082072    .046043    .111204    .043731
                      .054874    .101654    .068255        0.0        0.0        0.0        0.0        0.0        0.0        0.0
                          0.0        0.0        0.0        0.0        0.0        0.0        0.0        0.0        0.0        0.0
                          0.0        0.0        0.0        0.0        0.0

Blank card terminating all plot cards.            |BLANK PLOT

Memory storage figures for the preceding, now-completed data case.  -------------------------------  Present   Program
A value of  "-9999"  indicates that no figure is available.         28-Feb-22  19:31:29              figure     limit  (name)
     Size List 1.   Number of electric network nodes.                                                   37      6000  (LBUS)
     Size List 2.   Number of electric network branches.                                                39     10000  (LBRNCH)
     Size List 3.   Number of data values in R, L, C tables.                                            45    192000  (LDATA)
     Size List 4.   Number of electric network sources.                                                  3       900  (LEXCT)
     Size List 5.   Storage for [Y] and triangularized [Y].   No. times =    3     Factors =    66     189    420000  (LYMAT)
     Size List 6.   Number of entries in switch table.                  No. flops = 18                  21      1200  (LSWTCH)
     Size List 7.   Number of distinct ALPHANUMERIC data names plus program SPY variables.              25     15000  (LSIZE7)
     Size List 8.   History points of distributed lines.                                              2359    120000  (LPAST)
     Size List 9.   Number of nonlinear elements.                                                        0      2250  (LNONL)
     Size List 10.  Points of nonlinear characteristics.                                                 0      3800  (LCHAR)
     Size List 11.  Number of Type-59 S.M. outputs.                                                      0       720  (LSMOUT)
     Size List 12.  Total number of EMTP output variables.                                              55      2000  (LSIZ12)
     Size List 13.  Working space for batch/SPY plotting.                                            -9999     72800  (LSIZ13)
     Size List 14.  S.M./U.M. connections to TACS.                                                   -9999       510  (LBSTAC)
     Size List 15.  Character storage in bytes for MODELS.                                            3298     90000  (LCTACS)
     Size List 16.  Total number of Type-59 S.M. masses.                                                 0       800  (LIMASS)
     Size List 17.  Number of Type-59 Synchronous machines.                                              0        90  (LSYN)
     Size List 18.  Branch and switch power/energy outputs.                                              0       254  (MAXPE)
     Size List 19.  Total floating-point TACS table space.                                              23    120000  (LTACST)
     Size List 20.  Non-copied recursive convolution data.                                               0    100000  (LFSEM)
     Size List 21.  Total modal/phase [T] matrix storage.                                                9      3000  (LFD)
     Size List 22.  Total recursive convolution history.                                                 0     15000  (LHIST)
     Size List 23.  Giant vectors for renumbering, phasors;  also extrema accumulation.                  93    192000  (LSIZ23)
     Size List 24.  Peak phases of compensation for data.                                                0       120  (LCOMP)
     Size List 25.  Total table space for all U.M usage.                                             -9999     45000  (LSPCUM)
     Size List 26.  Square of max number of coupled phases.                                              9    260000  (LSIZ26)
     Size List 27.  Maximum number of MODELS top variables.                                             44       600  (LSIZ27)
     Size List 28.  MODELS.  Total work space is divided into INTEGER and REAL.  1st, REAL:           1780    210000  (LRTACS)
                             Second  and last,  statistics for INTEGER work space.                    6838         0  (LITACS)
     Size List 29.  RAM disk used by "TAPSAV" table saving (limit is "LABCOM" size LTLABL).          -9999       600  (LSIZ29)
     Size List 30.  Taku Noda frequency-dependent circuits.                                              0        19  (LSIZ30)
Timing figures characterizing central processor (CP) solution speed.  ----------------------------   CP sec  Wait sec  Real sec
     Data input time (through blank card ending branches) ....                                       0.016     0.000     0.016
     Node renumbering and phasor solution  ....                                                      0.000     0.000     0.000
     After phasor solution, but before time-step loop  ....                                          0.016     0.000     0.016
     Integration of equations (time-step loop)  ....                                                 1.047     0.000     1.047
     Plotting or STATISTICS termination overlays ....                                                0.000     0.000     0.000
                                                                                                    ---------------------------
                                                                                          Totals      1.078     0.000     1.078

