   ---   236   cards of disk file read into card cache cells  1   onward.
 Comment card is ignored.      |C   LBUS  LBRNCH   LDATA   LEXCT   LYMAT  LSWTCH
 Limit CIDEAL cards =   200    |CARDS        200 { Limit of CIDEAL will be 2 mor
 1st card (Lists  1-10).       |    6000   10000  192000     900  420000    120
 Comment card is ignored.      |C LSMOUT  LSIZ12  LSIZ13  LBSTAC  LCTACS  LIMASS
 2nd card (Lists 11-20).       |     720    2000   72800     510   90000     80
 Comment card is ignored.      |C    LFD   LHIST  LSIZ23   NCOMP  LSPCUM  LSIZ26
 3rd card (Lists 21-30).       |    3000   15000  192000     120   45000  26000
 4th card (Lists 31-32).       |     200     300     { Optional card for Lists
 Comment card is ignored.      |C  LWORK  LMARTI
 Supplemental offsets.         |  840000     742
 <===> Done with  "/"-card sorting by data class.    Remember that the source file appears different from interpreted input data.
Alternative Transients Program (ATP),  GNU Linux or DOS.  All rights reserved by Can/Am user group of Portland, Oregon, USA.
 Date (dd-mth-yy) and time of day (hh.mm.ss) = 28-Feb-22  19:10:31   Name of disk plot file is  pdraw6.3\bernal\energizacion461.pl4
Consult the 860-page ATP Rule Book of the Can/Am EMTP User Group in Portland,  Oregon, USA.  Source code date is 12 August 2008.
Total size of LABCOM tables = 10913436 INTEGER words.  31 VARDIM  List Sizes follow:  6002  10K  192K  900  420K  1200  15K
  120K  2250  3800  720  2K  72800  510  90K  800  90  254  120K  100K  3K  15K  192K  120  45K  260K  600  210K  1100  60  200
--------------------------------------------------+--------------------------------------------------------------------------------
Descriptive interpretation of input data cards.   |  Input data card images are shown below, all 80 columns, character by character
                                                  0         1         2         3         4         5         6         7         8
                                                  012345678901234567890123456789012345678901234567890123456789012345678901234567890
--------------------------------------------------+--------------------------------------------------------------------------------
Comment card.   NUMDCD = 1.                       |C data:C:\ATP\ATPDRAW6.3\BERNAL\ENERGIZACION461.ATP
Marker card preceding new EMTP data case.         |BEGIN NEW DATA CASE
Comment card.   NUMDCD = 3.                       |C --------------------------------------------------------
Comment card.   NUMDCD = 4.                       |C Generated by ATPDRAW  febrero, lunes 28, 2022
Comment card.   NUMDCD = 5.                       |C A Bonneville Power Administration program
Comment card.   NUMDCD = 6.                       |C by H. K. Høidalen at SEfAS/NTNU - NORWAY 1994-2016
Comment card.   NUMDCD = 7.                       |C --------------------------------------------------------
Comment card.   NUMDCD = 8.                       |C  dT  >< Tmax >< Xopt >< Copt ><Epsiln>
Misc. data.     1.000E-06   1.200E-01   5.000E+01 |   1.E-6     .12     50.
Misc. data.    500    1  0  1  1  0  0  0  0  0   |     500       1       0       1       1       0       0       0       0
  ///  Warning.  Nonzero XOPT or COPT differs from the power frequency of  6.00000000E+01  Hz.   Did the user really want this?
No TACS data,  but MODELS data begins (next).     |MODELS
      Another ordinary MODELS data card.          |OUTPUT
      Another ordinary MODELS data card.          |  AnVol
      Another ordinary MODELS data card.          |  LONG
      Another ordinary MODELS data card.          |  R0F
      Another ordinary MODELS data card.          |  R1F
      Another ordinary MODELS data card.          |  X0F
      Another ordinary MODELS data card.          |  X1F
      Another ordinary MODELS data card.          |  RDIVX
      Another ordinary MODELS data card.          |  RINSER
      Another ordinary MODELS data card.          |  CLOSE1
      Another ordinary MODELS data card.          |  RPpos
      Another ordinary MODELS data card.          |  RPcero
      Another ordinary MODELS data card.          |  LPpos
      Another ordinary MODELS data card.          |  LPcero
      Another ordinary MODELS data card.          |  CPpos
      Another ordinary MODELS data card.          |  CPcero
      Another ordinary MODELS data card.          |  Xp
      Another ordinary MODELS data card.          |  CR
      Another ordinary MODELS data card.          |  SIMET
      Another ordinary MODELS data card.          |  ENC1
      Another ordinary MODELS data card.          |  ENC2
      Another ordinary MODELS data card.          |  ENC1AS
      Another ordinary MODELS data card.          |  ENC2AS
      Another ordinary MODELS data card.          |MODEL DEFAULT
      Another ordinary MODELS data card.          |DATA AnVol,LONG,R0F,R1F,X0F,X1F,RDIVX,RINSER,CLOSE1,RPpos,RPcero,LPpos,LPcero
      Another ordinary MODELS data card.          |OUTPUT o1,o2,o3, o4, o5, o6, o7, o8, o9, o10, o11, o12, o13
      Another ordinary MODELS data card.          |VAR o1,o2,o3, o4, o5, o6, o7, o8, o9, o10, o11, o12, o13
      Another ordinary MODELS data card.          |INIT
      Another ordinary MODELS data card.          |  o1:=AnVol
      Another ordinary MODELS data card.          |  o2:=LONG
      Another ordinary MODELS data card.          |  o3:=R0F
      Another ordinary MODELS data card.          |  o4:=R1F
      Another ordinary MODELS data card.          |  o5:=X0F
      Another ordinary MODELS data card.          |  O6:=X1F
      Another ordinary MODELS data card.          |  o7:=RDIVX
      Another ordinary MODELS data card.          |  o8:=RINSER
      Another ordinary MODELS data card.          |  o9:=CLOSE1
      Another ordinary MODELS data card.          |  o10:=RPpos
      Another ordinary MODELS data card.          |  o11:=RPcero
      Another ordinary MODELS data card.          |  o12:=LPpos
      Another ordinary MODELS data card.          |  o13:=LPcero
      Another ordinary MODELS data card.          |
      Another ordinary MODELS data card.          |ENDINIT
      Another ordinary MODELS data card.          |EXEC
      Another ordinary MODELS data card.          |ENDEXEC
      Another ordinary MODELS data card.          |ENDMODEL
      Another ordinary MODELS data card.          |MODEL DEFAULT1
      Another ordinary MODELS data card.          |DATA CPpos,CPcero,Xp,CR,SIMET,ENC1,ENC2,ENC1AS,ENC2AS
      Another ordinary MODELS data card.          |OUTPUT o1, o2, o3, o4, o5, o6, o7, o8, o9
      Another ordinary MODELS data card.          |VAR o1, o2, o3, o4, o5, o6, o7, o8, o9
      Another ordinary MODELS data card.          |INIT
      Another ordinary MODELS data card.          |  o1:=CPpos
      Another ordinary MODELS data card.          |  o2:=CPcero
      Another ordinary MODELS data card.          |  o3:=Xp
      Another ordinary MODELS data card.          |  o4:=CR
      Another ordinary MODELS data card.          |  o5:=SIMET
      Another ordinary MODELS data card.          |  o6:=ENC1
      Another ordinary MODELS data card.          |  o7:=ENC2
      Another ordinary MODELS data card.          |  o8:=ENC1AS
      Another ordinary MODELS data card.          |  o9:=ENC2AS
      Another ordinary MODELS data card.          |
      Another ordinary MODELS data card.          |ENDINIT
      Another ordinary MODELS data card.          |EXEC
      Another ordinary MODELS data card.          |ENDEXEC
      Another ordinary MODELS data card.          |ENDMODEL
      Another ordinary MODELS data card.          |USE DEFAULT AS DEFAULT
      Another ordinary MODELS data card.          |DATA
      Another ordinary MODELS data card.          |  AnVol:=      0.0
      Another ordinary MODELS data card.          |  LONG:=  374.295
      Another ordinary MODELS data card.          |  R0F:= 3.331518
      Another ordinary MODELS data card.          |  R1F:= 3.675879
      Another ordinary MODELS data card.          |  X0F:= 13.76558
      Another ordinary MODELS data card.          |  X1F:= 15.18846
      Another ordinary MODELS data card.          |  RDIVX:= 0.242018
      Another ordinary MODELS data card.          |  RINSER:=     420.
      Another ordinary MODELS data card.          |  CLOSE1:= 0.048862
      Another ordinary MODELS data card.          |  RPpos:= 0.025367
      Another ordinary MODELS data card.          |  RPcero:=  0.35447
      Another ordinary MODELS data card.          |  LPpos:= 0.315517
      Another ordinary MODELS data card.          |  LPcero:= 1.437622
      Another ordinary MODELS data card.          |OUTPUT
      Another ordinary MODELS data card.          |  AnVol:=o1
      Another ordinary MODELS data card.          |  LONG:=o2
      Another ordinary MODELS data card.          |  R0F:=o3
      Another ordinary MODELS data card.          |  R1F:=o4
      Another ordinary MODELS data card.          |  X0F:=o5
      Another ordinary MODELS data card.          |  X1F:=o6
      Another ordinary MODELS data card.          |  RDIVX:=o7
      Another ordinary MODELS data card.          |  RINSER:=o8
      Another ordinary MODELS data card.          |  CLOSE1:=o9
      Another ordinary MODELS data card.          |  RPpos:=o10
      Another ordinary MODELS data card.          |  RPcero:=o11
      Another ordinary MODELS data card.          |  LPpos:=o12
      Another ordinary MODELS data card.          |  LPcero:=o13
      Another ordinary MODELS data card.          |ENDUSE
      Another ordinary MODELS data card.          |USE DEFAULT1 AS DEF
      Another ordinary MODELS data card.          |DATA
      Another ordinary MODELS data card.          |  CPpos:= 0.015597
      Another ordinary MODELS data card.          |  CPcero:= 0.005935
      Another ordinary MODELS data card.          |  Xp:= 838.8606
      Another ordinary MODELS data card.          |  CR:= 16.77721
      Another ordinary MODELS data card.          |  SIMET:=      0.0
      Another ordinary MODELS data card.          |  ENC1:=      0.0
      Another ordinary MODELS data card.          |  ENC2:=      0.0
      Another ordinary MODELS data card.          |  ENC1AS:=      0.0
      Another ordinary MODELS data card.          |  ENC2AS:=      0.0
      Another ordinary MODELS data card.          |OUTPUT
      Another ordinary MODELS data card.          |  CPpos:=o1
      Another ordinary MODELS data card.          |  CPcero:=o2
      Another ordinary MODELS data card.          |  Xp:=o3
      Another ordinary MODELS data card.          |  CR:=o4
      Another ordinary MODELS data card.          |  SIMET:=o5
      Another ordinary MODELS data card.          |  ENC1:=o6
      Another ordinary MODELS data card.          |  ENC2:=o7
      Another ordinary MODELS data card.          |  ENC1AS:=o8
      Another ordinary MODELS data card.          |  ENC2AS:=o9
      Another ordinary MODELS data card.          |ENDUSE
      Another ordinary MODELS data card.          |RECORD
      Another ordinary MODELS data card.          |  DEFAULT.o1 AS AnVOL
      Another ordinary MODELS data card.          |  DEFAULT.o2 AS LONG
      Another ordinary MODELS data card.          |  DEFAULT.o3 AS R0F
      Another ordinary MODELS data card.          |  DEFAULT.o4 AS R1F
      Another ordinary MODELS data card.          |  DEFAULT.o5 AS X0F
      Another ordinary MODELS data card.          |  DEFAULT.o6 AS X1F
      Another ordinary MODELS data card.          |  DEFAULT.o7 AS RDIVX
      Another ordinary MODELS data card.          |  DEFAULT.o8 AS RINSER
      Another ordinary MODELS data card.          |  DEFAULT.o9 AS CLOSE1
      Another ordinary MODELS data card.          |  DEFAULT.o10 AS RPpos
      Another ordinary MODELS data card.          |  DEFAULT.o11 AS RPcero
      Another ordinary MODELS data card.          |  DEFAULT.o12 AS LPpos
      Another ordinary MODELS data card.          |  DEFAULT.o13 AS LPcero
      Another ordinary MODELS data card.          |  DEF.o1 AS CPpos
      Another ordinary MODELS data card.          |  DEF.o2 AS CPcero
      Another ordinary MODELS data card.          |  DEF.o3 AS Xp
      Another ordinary MODELS data card.          |  DEF.o4 AS CR
      Another ordinary MODELS data card.          |  DEF.o5 AS SIMET
      Another ordinary MODELS data card.          |  DEF.o6 AS ENC1
      Another ordinary MODELS data card.          |  DEF.o7 AS ENC2
      Another ordinary MODELS data card.          |  DEF.o8 AS ENC1AS
      Another ordinary MODELS data card.          |  DEF.o9 AS ENC2AS
Termination of data for Laurent Dube`s MODELS.    |ENDMODELS
Comment card.   NUMDCD = 153.                     |C        1         2         3         4         5         6         7         8
Comment card.   NUMDCD = 154.                     |C 345678901234567890123456789012345678901234567890123456789012345678901234567890
Optional blank card follows last of MODELS data.  |BLANK MODELS
Comment card.   NUMDCD = 156.                     |C < n1 >< n2 ><ref1><ref2>< R  >< L  >< C  >
Comment card.   NUMDCD = 157.                     |C < n1 >< n2 ><ref1><ref2>< R  >< A  >< B  ><Leng><><>0
1st of coupled R-L.   3.33150E+00  4.38172E-02    |51IFUENASB1A              3.3315 13.76558151
2nd coil. 3.676E+00 4.835E-02 0.000E+00 0.000E+00 |52IFUENBSB1B              3.675915.188457821
Zca, Zcc=-1.148E-01-1.510E-03 3.561E+00 4.684E-02 |53IFUENCSB1C
Series R-L-C.   1.000E+09  0.000E+00  0.000E+00   |  SB1A                      1.E9                                               0
Series R-L-C.   1.000E+09  0.000E+00  0.000E+00   |  SB1B                      1.E9                                               0
Series R-L-C.   1.000E+09  0.000E+00  0.000E+00   |  SB1C                      1.E9                                               0
Series R-L-C.   1.000E+09  0.000E+00  0.000E+00   |  RSNSHA                    1.E9                                               0
Series R-L-C.   1.000E+09  0.000E+00  0.000E+00   |  RSNSHB                    1.E9                                               0
Series R-L-C.   1.000E+09  0.000E+00  0.000E+00   |  RSNSHC                    1.E9                                               0
Series R-L-C.   1.000E+09  0.000E+00  0.000E+00   |  RSNNHA                    1.E9                                               0
Series R-L-C.   1.000E+09  0.000E+00  0.000E+00   |  RSNNHB                    1.E9                                               0
Series R-L-C.   1.000E+09  0.000E+00  0.000E+00   |  RSNNHC                    1.E9                                               0
Series R-L-C.   1.000E+09  0.000E+00  0.000E+00   |  SE2A                      1.E9                                               0
Series R-L-C.   1.000E+09  0.000E+00  0.000E+00   |  SE2B                      1.E9                                               0
Series R-L-C.   1.000E+09  0.000E+00  0.000E+00   |  SE2C                      1.E9                                               0
Series R-L-C.   2.500E+02  0.000E+00  3.000E-10   |  X0001B                    250.       .0003                                   0
Series R-L-C.   2.500E+02  0.000E+00  3.000E-10   |  X0002B                    250.       .0003                                   0
Series R-L-C.   1.000E-06  0.000E+00  0.000E+00   |  X0001ALN1A               1.E-6                                               0
Series R-L-C.   1.000E-06  0.000E+00  0.000E+00   |  SB1A  X0002A             1.E-6                                               0
Series R-L-C.   1.000E-06  0.000E+00  0.000E+00   |  X0001BLN1B               1.E-6                                               0
Series R-L-C.   1.000E-06  0.000E+00  0.000E+00   |  SB1B  X0002B             1.E-6                                               0
Series R-L-C.   1.000E-06  0.000E+00  0.000E+00   |  X0001CLN1C               1.E-6                                               0
Series R-L-C.   1.000E-06  0.000E+00  0.000E+00   |  SB1C  X0002C             1.E-6                                               0
Series R-L-C.   4.200E+02  0.000E+00  0.000E+00   |  XX0005X0002A              420.                                               0
Series R-L-C.   4.200E+02  0.000E+00  0.000E+00   |  XX0003X0002B              420.                                               0
Series R-L-C.   4.200E+02  0.000E+00  0.000E+00   |  XX0004X0002C              420.                                               0
Series R-L-C.   2.500E+02  0.000E+00  3.000E-10   |  X0001A                    250.       .0003                                   0
Series R-L-C.   1.000E+06  0.000E+00  0.000E+00   |  X0001AX0002A              1.E6                                               0
Series R-L-C.   1.000E+06  0.000E+00  0.000E+00   |  X0001BX0002B              1.E6                                               0
Series R-L-C.   1.000E+06  0.000E+00  0.000E+00   |  X0001CX0002C              1.E6                                               0
Series R-L-C.   2.500E+02  0.000E+00  3.000E-10   |  X0002C                    250.       .0003                                   0
Series R-L-C.   2.500E+02  0.000E+00  3.000E-10   |  X0002A                    250.       .0003                                   0
Series R-L-C.   2.500E+02  0.000E+00  3.000E-10   |  X0001C                    250.       .0003                                   0
Series R-L-C.   1.250E+02  0.000E+00  6.000E-10   |  X0001AX0002A              125.       .0006                                   0
Series R-L-C.   1.250E+02  0.000E+00  6.000E-10   |  X0001BX0002B              125.       .0006                                   0
Series R-L-C.   1.250E+02  0.000E+00  6.000E-10   |  X0001CX0002C              125.       .0006                                   0
 3.545E-01 1.438E+00 5.940E-03 8.777E+02 1.951E-03|-1LN1A  VFF2A             .354471.4376.00594 374.3 0 0                         0
 2.537E-02 3.155E-01 1.560E-02 2.537E+02 1.482E-03|-2LN1B  VFF2B             .02537.31552 .0156 374.3 0 0                         0
3rd or later transposed distributed phase.        |-3LN1C  VFF2C                                                                  0
Blank card ending branches.  IBR, NTOT = 39  31   |BLANK BRANCH
Comment card.   NUMDCD = 198.                     |C < n 1>< n 2>< Tclose ><Top/Tde ><   Ie   ><Vf/CLOP ><  type  >
Switch.  -1.00E+00  1.00E+01  0.00E+00  0.00E+00  |  LN1A  COMPA        -1.       10.                                             0
Switch.  -1.00E+00  1.00E+01  0.00E+00  0.00E+00  |  LN1B  COMPB        -1.       10.                                             0
Switch.  -1.00E+00  1.00E+01  0.00E+00  0.00E+00  |  LN1C  COMPC        -1.       10.                                             0
Switch.  -1.00E+00  1.00E+01  0.00E+00  0.00E+00  |  VFF2A RSNNHA       -1.       10.                                             0
Switch.  -1.00E+00  1.00E+01  0.00E+00  0.00E+00  |  VFF2B RSNNHB       -1.       10.                                             0
Switch.  -1.00E+00  1.00E+01  0.00E+00  0.00E+00  |  VFF2C RSNNHC       -1.       10.                                             0
Switch.   2.00E+00 -1.00E+00  0.00E+00  0.00E+00  |  VFF2A SE2A          2.       -1.                                             0
Switch.   2.00E+00 -1.00E+00  0.00E+00  0.00E+00  |  VFF2B SE2B          2.       -1.                                             0
Switch.   2.00E+00 -1.00E+00  0.00E+00  0.00E+00  |  VFF2C SE2C          2.       -1.                                             0
Switch.   4.89E-02  1.00E+03  0.00E+00  0.00E+00  |  X0001BXX0003.048861506      1.E3                                             0
Switch.   4.89E-02  1.00E+03  0.00E+00  0.00E+00  |  X0001CXX0004.048861506      1.E3                                             0
Switch.   5.64E-02  1.00E+03  0.00E+00  0.00E+00  |  XX0005X0002A.056361506      1.E3                                             0
Switch.   5.64E-02  1.00E+03  0.00E+00  0.00E+00  |  XX0003X0002B.056361506      1.E3                                             0
Switch.   5.64E-02  1.00E+03  0.00E+00  0.00E+00  |  XX0004X0002C.056361506      1.E3                                             0
Switch.   4.89E-02  1.00E+03  0.00E+00  0.00E+00  |  X0001AXX0005.048861506      1.E3                                             0
Permanently-closed switch used for metering.      |  VFUENAIFUENA                                        MEASURING                1
Permanently-closed switch used for metering.      |  VFUENBIFUENB                                        MEASURING                1
Permanently-closed switch used for metering.      |  VFUENCIFUENC                                        MEASURING                1
Permanently-closed switch used for metering.      |  COMPA RSNSHA                                        MEASURING                1
Permanently-closed switch used for metering.      |  COMPB RSNSHB                                        MEASURING                1
Permanently-closed switch used for metering.      |  COMPC RSNSHC                                        MEASURING                1
Blank card ending switches.   KSWTCH = 21.        |BLANK SWITCH
Comment card.   NUMDCD = 221.                     |C < n 1><>< Ampl.  >< Freq.  ><Phase/T0><   A1   ><   T1   >< TSTART >< TSTOP  >
Source.   4.29E+05  5.00E+01  0.00E+00 -1.00E+00  |14VFUENA  428660.705       50.                                     -1.      100.
Source.   4.29E+05  5.00E+01 -1.20E+02 -1.00E+00  |14VFUENB  428660.705       50.     -120.                           -1.      100.
Source.   4.29E+05  5.00E+01 -2.40E+02 -1.00E+00  |14VFUENC  428660.705       50.     -240.                           -1.      100.
Blank card ends electric sources.  KCONST = 3     |BLANK SOURCE
Pi-equivalent branches of distributed circuits are added to the table of List Size 3 between indices  40   and  45.

Sinusoidal steady-state phasor solution, branch by branch.   All flows are away from a bus,  and the real part,  magnitude,  or  "P"
is printed above the imaginary part,  the angle,  or  "Q".   The first solution frequency  =  5.00000000E+01  Hertz.
  Bus K                        Phasor  node  voltage              Phasor  branch  current               Power flow       Power loss
             Bus M         Rectangular            Polar          Rectangular            Polar            P  and  Q        P  and  Q

 IFUENA                    428660.705       428660.705       .4290209467237  .44586711497042      91952.210741174   .3653798361072
                                  0.0              0.0      .12140227133109       15.8001954      -26020.19160869        1.5097136

            SB1A      428660.97187518  428660.97193172      -.4290209467237  .44586711497042      -91951.84536134
                      -6.962429162826       -0.0009306      -.1214022713311     -164.1998046      26021.701322296

 IFUENB                  -214330.3525       428660.705      -.1093730223089   .4458671149715      91952.210741194  .36537983610908
                      -371231.0601341     -120.0000000      -.4322441742858     -104.1998046      -26020.19160948        1.5097136

            SB1B      -214336.5155781  428660.97193172      .10937302230888   .4458671149715      -91951.84536136
                      -371227.8100403     -120.0009306      .43224417428582       75.8001954      26021.701323077

 IFUENC                  -214330.3525       428660.705       -.319647924417  .44586711497222      91952.210741211  .36537983611104
                      371231.06013415      120.0000000      .31084190294998      135.8001954      -26020.19160998        1.5097136

            SB1C      -214324.4562971  428660.97193172      .31964792441698  .44586711497222      -91951.84536137
                      371234.77246941      119.9990694        -.31084190295      -44.1998046       26021.70132358

 SB1A                 428660.97187518  428660.97193172      .42866097188E-3  .42866097193E-3      91.875114428724  91.875114428724
                      -6.962429162826       -0.0009306      -.6962429163E-8       -0.0009306      .5283368008E-19        0.0000000

            TERRA                 0.0              0.0      -.4286609719E-3  .42866097193E-3                  0.0
                                  0.0              0.0      .69624291628E-8      179.9990694                  0.0

 SB1B                 -214336.5155781  428660.97193172      -.2143365156E-3  .42866097193E-3      91.875114428724  91.875114428724
                      -371227.8100403     -120.0009306        -.37122781E-3     -120.0009306       -.13669621E-14        0.0000000

            TERRA                 0.0              0.0      .21433651558E-3  .42866097193E-3                  0.0
                                  0.0              0.0      .37122781004E-3       59.9990694                  0.0

 SB1C                 -214324.4562971  428660.97193172      -.2143244563E-3  .42866097193E-3      91.875114428724  91.875114428724
                      371234.77246941      119.9990694      .37123477247E-3      119.9990694      .2692290835E-14        0.0000000

            TERRA                 0.0              0.0       .2143244563E-3  .42866097193E-3                  0.0
                                  0.0              0.0      -.3712347725E-3      -60.0009306                  0.0

 RSNSHA               42.474503262032  220.34441666495      .42474503262E-7  .22034441666E-6      .24275830978E-4  .24275830978E-4
                      -216.2118834108      -78.8858593      -.2162118834E-6      -78.8858593      .2618026639E-21        0.0000000

            TERRA                 0.0              0.0      -.4247450326E-7  .22034441666E-6                  0.0
                                  0.0              0.0      .21621188341E-6      101.1141407                  0.0

 RSNSHB               -208.4822352649  220.34441666495      -.2084822353E-6  .22034441666E-6      .24275830978E-4  .24275830978E-4
                      71.321942867373      161.1141407      .71321942867E-7      161.1141407      .5678594905E-21        0.0000000

            TERRA                 0.0              0.0      .20848223526E-6  .22034441666E-6                  0.0
                                  0.0              0.0      -.7132194287E-7      -18.8858593                  0.0

 RSNSHC               166.00773200285  220.34441666495        .166007732E-6  .22034441666E-6      .24275830978E-4  .24275830978E-4
                      144.88994054346       41.1141407      .14488994054E-6       41.1141407      .9007996871E-21        0.0000000

            TERRA                 0.0              0.0       -.166007732E-6  .22034441666E-6                  0.0
                                  0.0              0.0      -.1448899405E-6     -138.8858593                  0.0

 RSNNHA               45.253250621661  246.56650191986      .45253250622E-7  .24656650192E-6      .30397519934E-4  .30397519934E-4
                      -242.3781821393      -79.4243469      -.2423781821E-6      -79.4243469      .4152446675E-21        0.0000000

            TERRA                 0.0              0.0      -.4525325062E-7  .24656650192E-6                  0.0
                                  0.0              0.0      .24237818214E-6      100.5756531                  0.0

 RSNNHB               -232.5322883666  246.56650191986      -.2325322884E-6  .24656650192E-6      .30397519934E-4  .30397519934E-4
                      81.998626427485      160.5756531      .81998626427E-7      160.5756531      -.252290087E-21        0.0000000

            TERRA                 0.0              0.0      .23253228837E-6  .24656650192E-6                  0.0
                                  0.0              0.0      -.8199862643E-7      -19.4243469                  0.0

 RSNNHC               187.27903774492  246.56650191986      .18727903774E-6  .24656650192E-6      .30397519934E-4  .30397519934E-4
                      160.37955571185       40.5756531      .16037955571E-6       40.5756531       .305229646E-21        0.0000000

            TERRA                 0.0              0.0      -.1872790377E-6  .24656650192E-6                  0.0
                                  0.0              0.0      -.1603795557E-6     -139.4243469                  0.0

 X0001B                -208.482235409  220.34441666808      -.6722397678E-5  .20766972014E-4       .5390839083E-7   .5390839083E-7
                      71.321942455729      161.1141408      -.1964882938E-4     -108.8872092      -.0022879431666       -0.0022879

            TERRA                 0.0              0.0      .67223976784E-5  .20766972014E-4                  0.0
                                  0.0              0.0      .19648829382E-4       71.1127908                  0.0

 X0002B                -214336.515578  428660.97193129      .03498692083672  .04040034479779      .20402348247254  .20402348247254
                      -371227.8100398     -120.0009306       -.020201565042      -30.0022806      -8659.025531286    -8659.0255313

            TERRA                 0.0              0.0      -.0349869208367  .04040034479779                  0.0
                                  0.0              0.0      .02020156504198      149.9977194                  0.0

 X0001A               42.474503690592  220.34441666808      .42856058257712  .43614772817398      .34508939999203  .95112420396E-7
                      -216.2118833298      -78.8858592      .08099794968075       10.7026574      -48.05011919629              0.0

            LN1A      42.474503262032  220.34441666495      -.4285605825771  .43614772817398      -.3450893048796
                      -216.2118834108      -78.8858593      -.0809979496808     -169.2973426      48.050119196288

 SB1A                 428660.97187518  428660.97193172      .42858300730586  .44544574009049      91857.981593077  .99210950566E-7
                      -6.962429162826       -0.0009306      .12140227845236       15.8155341      -26021.70132404        0.0000000

            X0002A    428660.97187475  428660.97193129      -.4285830073059  .44544574009049      -91857.98159298
                      -6.962429284228       -0.0009306      -.1214022784524     -164.1844659       26021.70132404

 X0001B                -208.482235409  220.34441666808      -.1441340202746  .43614771937302      .34509102399959  .95112416557E-7
                      71.321942455729      161.1141408       -.411643313214     -109.2973445      -48.05011821498        0.0000000

            LN1B      -208.4822352649  220.34441666495      .14413402027458  .43614771937302      -.3450909288872
                      71.321942867373      161.1141407      .41164331321397       70.7026555      48.050118214979

 SB1B                 -214336.5155781  428660.97193172      -.1091393642128  .44542054663205      91852.273599873  .99199731096E-7
                      -371227.8100403     -120.0009306       -.431842636317     -104.1833370      -26022.03939019              0.0

            X0002B     -214336.515578  428660.97193129      .10913936421275  .44542054663205      -91852.27359977
                      -371227.8100398     -120.0009306      .43184263631701       75.8166630      26022.039390186

 X0001C               166.00773171842  220.34441666808      -.2844265338808  .43614772473785      .34509480978343  .95112418897E-7
                      144.88994087411       41.1141408      .33064540616579      130.7026510      -48.05011877886              0.0

            LN1C      166.00773200285  220.34441666495      .28442653388083  .43614772473785       -.345094714671
                      144.88994054346       41.1141407      -.3306454061658      -49.2973490      48.050118778859

 SB1C                 -214324.4562971  428660.97193172      -.3194145392627  .44544726873444      91859.597313508  .99211632687E-7
                      371234.77246941      119.9990694      .31047966331244      135.8126704      -26017.19938793        0.0000000

            X0002C    -214324.4562967  428660.97193129      .31941453926265  .44544726873444      -91859.59731341
                       371234.7724691      119.9990694      -.3104796633124      -44.1873296       26017.19938793

 XX0005               428660.97187475  428660.97193129                  0.0              0.0                  0.0              0.0
                      -6.962429284228       -0.0009306                  0.0              0.0                  0.0              0.0

            X0002A    428660.97187475  428660.97193129                  0.0              0.0                  0.0
                      -6.962429284228       -0.0009306                  0.0              0.0                  0.0

 XX0003                -214336.515578  428660.97193129                  0.0              0.0                  0.0              0.0
                      -371227.8100398     -120.0009306                  0.0              0.0                  0.0              0.0

            X0002B     -214336.515578  428660.97193129                  0.0              0.0                  0.0
                      -371227.8100398     -120.0009306                  0.0              0.0                  0.0

 XX0004               -214324.4562967  428660.97193129                  0.0              0.0                  0.0              0.0
                       371234.7724691      119.9990694                  0.0              0.0                  0.0              0.0

            X0002C    -214324.4562967  428660.97193129                  0.0              0.0                  0.0
                       371234.7724691      119.9990694                  0.0              0.0                  0.0

 X0001A               42.474503690592  220.34441666808      .20377584239E-4  .20766972014E-4       .5390839083E-7   .5390839083E-7
                      -216.2118833298      -78.8858592      .40026475273E-5       11.1127908      -.0022879431666       -0.0022879

            TERRA                 0.0              0.0      -.2037758424E-4  .20766972014E-4                  0.0
                                  0.0              0.0      -.4002647527E-5     -168.8872092                  0.0

 X0001A               42.474503690592  220.34441666808      -.4286184973711  .42861854844834      -9.080057864949   91856.93003698
                      -216.2118833298      -78.8858592       -.209249454E-3     -179.9720285      46.340650156655        0.0000000

            X0002A    428660.97187475  428660.97193129      .42861849737106  .42861854844834      91866.010094845
                      -6.962429284228       -0.0009306      .20924945405E-3        0.0279715      -46.34065015665

 X0001B                -208.482235409  220.34441666808       .2141280333426  .42861854844834      -9.080057864949   91856.93003698
                      71.321942455729      161.1141408      .37129913198227       60.0279715      46.340650156655        0.0000000

            X0002B     -214336.515578  428660.97193129      -.2141280333426  .42861854844834      91866.010094845
                      -371227.8100398     -120.0009306      -.3712991319823     -119.9720285      -46.34065015665

 X0001C               166.00773171842  220.34441666808      .21449046402846  .42861854844834      -9.080057864949   91856.93003698
                      144.88994087411       41.1141408      -.3710898825282      -59.9720285      46.340650156655        0.0000000

            X0002C    -214324.4562967  428660.97193129      -.2144904640285  .42861854844834      91866.010094845
                       371234.7724691      119.9990694      .37108988252823      120.0279715      -46.34065015665

 X0002C               -214324.4562967  428660.97193129      -.0349885289409  .04040034479779      .20402348247288  .20402348247288
                       371234.7724691      119.9990694      -.0201987797238     -150.0022806      -8659.025531286    -8659.0255313

            TERRA                 0.0              0.0      .03498852894092  .04040034479779                  0.0
                                  0.0              0.0       .0201987797238       29.9977194                  0.0

 X0002A               428660.97187475  428660.97193129      .16081041981E-5  .04040034479779       .2040234824725   .2040234824725
                      -6.962429284228       -0.0009306      .04040034476578       89.9977194      -8659.025531286    -8659.0255313

            TERRA                 0.0              0.0      -.1608104198E-5  .04040034479779                  0.0
                                  0.0              0.0      -.0404003447658      -90.0022806                  0.0

 X0001C               166.00773171842  220.34441666808      -.1365518656E-4  .20766972014E-4       .5390839083E-7   .5390839083E-7
                      144.88994087411       41.1141408      .15646181855E-4      131.1127908      -.0022879431666       -0.0022879

            TERRA                 0.0              0.0       .1365518656E-4  .20766972014E-4                  0.0
                                  0.0              0.0      -.1564618185E-4      -48.8872092                  0.0

 X0001A               42.474503690592  220.34441666808      .37538960081E-4  .08079269295743      8.7349664333733   .4079662022071
                      -216.2118833298      -78.8858592      -.0807926842365      -89.9733785      1.7117563977595   -17314.6233855

            X0002A    428660.97187475  428660.97193129      -.3753896008E-4  .08079269295743      -8.327000231166
                      -6.962429284228       -0.0009306      .08079268423651       90.0266215      -17316.33514191

 X0001B                -208.482235409  220.34441666808      -.0699872864688  .08079269295743      8.7349664333734  .40796620220636
                      71.321942455729      161.1141408      .04036383242519      150.0266215      1.7117563977595   -17314.6233855

            X0002B     -214336.515578  428660.97193129      .06998728646879  .08079269295743      -8.327000231167
                      -371227.8100398     -120.0009306      -.0403638324252      -29.9733785      -17316.33514191

 X0001C               166.00773171842  220.34441666808      .06994974750871  .08079269295743      8.7349664333734  .40796620220758
                      144.88994087411       41.1141408      .04042885181132       30.0266215      1.7117563977595   -17314.6233855

            X0002C    -214324.4562967  428660.97193129      -.0699497475087  .08079269295743      -8.327000231166
                       371234.7724691      119.9990694      -.0404288518113     -149.9733785      -17316.33514191

 LN1A                 42.474503262032  220.34441666495      .42856053863282  .43614772142086       .3450671670898  .34503676956989
                      -216.2118834108      -78.8858593      .08099814582662       10.7026838      -48.05011861125      -48.0501186

            VFF2A     45.253250621661  246.56650191986      -.4525325059E-7   .2465665017E-6      -.3039751991E-4
                      -242.3781821393      -79.4243469      .24237818192E-6      100.5756531      .1758076484E-14

 LN1B                 -208.4822352649  220.34441666495      -.1441338173711  .43614772142086       .3450671670898  .34503676956988
                      71.321942867373      161.1141407      -.4116433864289     -109.2973162      -48.05011861125      -48.0501186

            VFF2B     -232.5322883666  246.56650191986      .23253228835E-6  .24656650185E-6      -.3039751993E-4
                      81.998626427485      160.5756531      -.8199862624E-7      -19.4243468      .2077926735E-13

 LN1C                 166.00773200285  220.34441666495      -.2844267212617  .43614772142086      .34506716708986  .34503676956992
                      144.88994054346       41.1141407      .33064524060226      130.7026838      -48.05011861125      -48.0501186

            VFF2C     187.27903774492  246.56650191986       -.187279038E-6    .246566502E-6      -.3039751994E-4
                      160.37955571185       40.5756531      -.1603795556E-6     -139.4243469      -.296619044E-13
     Total network loss  P-loss  by summing injections =   2.758730858378E+05

Output for steady-state phasor switch currents.
      Node-K    Node-M            I-real            I-imag            I-magn          Degrees        Power            Reactive
      LN1A      COMPA         5.96226352E-08   -1.77046849E-07    1.86816609E-07     -71.3884    2.04060372E-05   -2.68557265E-06
      LN1B      COMPB        -2.02125704E-07    7.93644535E-08    2.17148605E-07     158.5626    2.39000228E-05    1.06504037E-06
      LN1C      COMPC         2.02163210E-07    1.97150892E-07    2.82379953E-07      44.2808    3.10629185E-05   -1.71857853E-06
      VFF2A     RSNNHA        4.52532510E-08   -2.42378182E-07    2.46566502E-07     -79.4243    3.03975199E-05   -4.79616423E-14
      VFF2B     RSNNHB       -2.32532288E-07    8.19986261E-08    2.46566502E-07     160.5757    3.03975199E-05   -3.87799013E-14
      VFF2C     RSNNHC        1.87279038E-07    1.60379556E-07    2.46566502E-07      40.5757    3.03975199E-05    2.28183854E-14
      VFF2A     SE2A              Open              Open              Open             Open          Open              Open
      VFF2B     SE2B              Open              Open              Open             Open          Open              Open
      VFF2C     SE2C              Open              Open              Open             Open          Open              Open
      X0001B    XX0003            Open              Open              Open             Open          Open              Open
      X0001C    XX0004            Open              Open              Open             Open          Open              Open
      XX0005    X0002A            Open              Open              Open             Open          Open              Open
      XX0003    X0002B            Open              Open              Open             Open          Open              Open
      XX0004    X0002C            Open              Open              Open             Open          Open              Open
      X0001A    XX0005            Open              Open              Open             Open          Open              Open
      VFUENA    IFUENA        4.29020947E-01    1.21402271E-01    4.45867115E-01      15.8002    9.19522107E+04   -2.60201916E+04
      VFUENB    IFUENB       -1.09373022E-01   -4.32244174E-01    4.45867115E-01    -104.1998    9.19522107E+04   -2.60201916E+04
      VFUENC    IFUENC       -3.19647924E-01    3.10841903E-01    4.45867115E-01     135.8002    9.19522107E+04   -2.60201916E+04
      COMPA     RSNSHA        5.96226352E-08   -1.77046849E-07    1.86816609E-07     -71.3884    2.04060372E-05   -2.68557265E-06
      COMPB     RSNSHB       -2.02125704E-07    7.93644535E-08    2.17148605E-07     158.5626    2.39000228E-05    1.06504037E-06
      COMPC     RSNSHC        2.02163210E-07    1.97150892E-07    2.82379953E-07      44.2808    3.10629185E-05   -1.71857853E-06

Solution at nodes with known voltage.   Nodes that are shorted together by switches are shown as a group of names, with the printed
result applying to the composite group.   The entry "MVA" is  SQRT( P**2 + Q**2 )  in units of power,  while  "P.F."  is the
associated power factor.
              Node                Source  node  voltage             Injected  source  current              Injected  source  power
              name         Rectangular            Polar          Rectangular            Polar            P  and  Q    MVA and P.F.

               VFUENA
              IFUENA       428660.705       428660.705      .42902094672298  .44586711497023      91952.210741021  95562.855919728
                                  0.0              0.0      .12140227133293       15.8001954      -26020.19160909        0.9622171

               VFUENB
              IFUENB     -214330.3525       428660.705      -.1093730223077  .44586711497192      91952.210741205  95562.855920089
                      -371231.0601341     -120.0000000      -.4322441742865     -104.1998046      -26020.19160976        0.9622171

               VFUENC
              IFUENC     -214330.3525       428660.705      -.3196479244183  .44586711497313      91952.210741341  95562.855920349
                      371231.06013415      120.0000000       .3108419029499      135.8001954      -26020.19161024        0.9622171

  +++  Node  "COMPC "  has no connected linear branches.  Add (to ground) the conductance  G = 1.00000000E-18  mhos.
  +++  Node  "COMPB "  has no connected linear branches.  Add (to ground) the conductance  G = 1.00000000E-18  mhos.
  +++  Node  "COMPA "  has no connected linear branches.  Add (to ground) the conductance  G = 1.00000000E-18  mhos.
Card of names for time-step loop output.          |  LN1A  LN1B  LN1C  COMPA COMPB COMPC SB1A  SB1B  SB1C  SE2A  SE2B  SE2C  VFF2A
Card of names for time-step loop output.          |  VFF2B VFF2C IFUENAIFUENBIFUENC
Card of names for time-step loop output.          |-5VFF2A VFF2B VFF2B VFF2C VFF2C VFF2A LN1A  LN1B  LN1B  LN1C  LN1C  LN1A
Card of names for time-step loop output.          |-5SB1A  SB1B  SB1B  SB1C  SB1C  SB1A
Blank card ending requests for output variables.  |BLANK OUTPUT

Column headings for the  55   EMTP output variables follow.  These are divided among the 5 possible classes as follows ....
  First  27     output variables are electric-network voltage differences (upper voltage minus lower voltage);
  Next   6     output variables are branch currents (flowing from the upper node to the lower node);
  Next   22     output variables belong to MODELS (with "MODELS" an internally-added upper name of pair).
   Step      Time      LN1A       LN1B       LN1C       COMPA      COMPB      COMPC      SB1A       SB1B       SB1C       SE2A
 

                       SE2B       SE2C       VFF2A      VFF2B      VFF2C      IFUENA     IFUENB     IFUENC     VFF2A      VFF2B
                                                                                                               VFF2B      VFF2C

                       VFF2C      LN1A       LN1B       LN1C       SB1A       SB1B       SB1C       VFUENA     VFUENB     VFUENC
                       VFF2A      LN1B       LN1C       LN1A       SB1B       SB1C       SB1A       IFUENA     IFUENB     IFUENC

                       COMPA      COMPB      COMPC      MODELS     MODELS     MODELS     MODELS     MODELS     MODELS     MODELS
                       RSNSHA     RSNSHB     RSNSHC     ANVOL      LONG       R0F        R1F        X0F        X1F        RDIVX

                       MODELS     MODELS     MODELS     MODELS     MODELS     MODELS     MODELS     MODELS     MODELS     MODELS
                       RINSER     CLOSE1     RPPOS      RPCERO     LPPOS      LPCERO     CPPOS      CPCERO     XP         CR

                       MODELS     MODELS     MODELS     MODELS     MODELS
                       SIMET      ENC1       ENC2       ENC1AS     ENC2AS
 ***      Phasor I(0) =  5.9622635E-08                     Switch  "LN1A  "  to  "COMPA "  closed in the steady-state.
 ***      Phasor I(0) = -2.0212570E-07                     Switch  "LN1B  "  to  "COMPB "  closed in the steady-state.
 ***      Phasor I(0) =  2.0216321E-07                     Switch  "LN1C  "  to  "COMPC "  closed in the steady-state.
 ***      Phasor I(0) =  4.5253251E-08                     Switch  "VFF2A "  to  "RSNNHA"  closed in the steady-state.
 ***      Phasor I(0) = -2.3253229E-07                     Switch  "VFF2B "  to  "RSNNHB"  closed in the steady-state.
 ***      Phasor I(0) =  1.8727904E-07                     Switch  "VFF2C "  to  "RSNNHC"  closed in the steady-state.
 ***      Phasor I(0) =  4.2902095E-01                     Switch  "VFUENA"  to  "IFUENA"  closed in the steady-state.
 ***      Phasor I(0) = -1.0937302E-01                     Switch  "VFUENB"  to  "IFUENB"  closed in the steady-state.
 ***      Phasor I(0) = -3.1964792E-01                     Switch  "VFUENC"  to  "IFUENC"  closed in the steady-state.
 ***      Phasor I(0) =  5.9622635E-08                     Switch  "COMPA "  to  "RSNSHA"  closed in the steady-state.
 ***      Phasor I(0) = -2.0212570E-07                     Switch  "COMPB "  to  "RSNSHB"  closed in the steady-state.
 ***      Phasor I(0) =  2.0216321E-07                     Switch  "COMPC "  to  "RSNSHC"  closed in the steady-state.
      0       0.0  42.4745033 -208.48224 166.007732 42.4745033 -208.48224 166.007732 428660.972 -214336.52 -214324.46        0.0
                          0.0        0.0 45.2532506 -232.53229 187.279038 428660.705 -214330.35 -214330.35 277.785539 -419.81133
                   142.025787 250.956739 -374.48997 123.533229 642997.487 -12.059281 -642985.43 .429020947 -.10937302 -.31964792
                   .596226E-7 -.20213E-6 .202163E-6        0.0    374.295   3.331518   3.675879   13.76558   15.18846    .242018
                         420.    .048862    .025367     .35447    .315517   1.437622    .015597    .005935   838.8606   16.77721
                          0.0        0.0        0.0        0.0        0.0
    500     .5E-3  75.7761817 -217.07349 141.297304 75.7761817 -217.07349 141.297304 423384.548 -153624.86 -269759.69        0.0
                          0.0        0.0 82.6124083 -242.49684  159.88443  423383.18 -153618.26 -269764.92 325.109247 -402.38127
                   77.2720218 292.849668 -358.37079 65.5211225 577009.409 116134.827 -693144.24 .404721656 -.04040049 -.36432116
                     .7675E-7 -.22719E-6 .150423E-6        0.0    374.295   3.331518   3.675879   13.76558   15.18846    .242018
                         420.    .048862    .025367     .35447    .315517   1.437622    .015597    .005935   838.8606   16.77721
                          0.0        0.0        0.0        0.0        0.0
   1000     .1E-2    107.2092 -220.31827 113.109075   107.2092 -220.31827 113.109075 407682.971 -89130.442 -318552.53        0.0
                          0.0        0.0 117.937375 -246.49031 128.552939 407680.557 -89123.572 -318556.98 364.427689 -375.04325
                   10.6155646 327.527475 -333.42735 5.89987434 496813.412 229422.088  -726235.5 .370476159 .029557135 -.40003329
                   .117475E-6 -.22751E-6 .124259E-6        0.0    374.295   3.331518   3.675879   13.76558   15.18846    .242018
                         420.    .048862    .025367     .35447    .315517   1.437622    .015597    .005935   838.8606   16.77721
                          0.0        0.0        0.0        0.0        0.0
   1500     .0015  136.003195 -218.13851 82.1353101 136.003195 -218.13851 82.1353101 381942.887 -22441.336 -359501.55        0.0
                          0.0        0.0 150.348057 -244.40922 94.0611682 381939.485 -22434.368 -359505.12 394.757282 -338.47039
                   -56.286889   354.1417 -300.27382 -53.867885 404384.223 337060.215 -741444.44  .32711369 .098784276 -.42589797
                   .138597E-6 -.24066E-6 .878426E-7        0.0    374.295   3.331518   3.675879   13.76558   15.18846    .242018
                         420.    .048862    .025367     .35447    .315517   1.437622    .015597    .005935   838.8606   16.77721
                          0.0        0.0        0.0        0.0        0.0
   2000      .002  161.448753 -210.58765 49.1388974 161.448753 -210.58765 49.1388974 346798.104 44800.3484 -391598.45        0.0
                          0.0        0.0 179.073944 -236.31863 57.2446868 346793.795 44807.2448 -391601.04 415.392576 -293.56332
                   -121.82926 372.036404 -259.72655 -112.30986 301997.756 436398.801 -738396.56 .275698074 .165578283 -.44127636
                   .158445E-6 -.20845E-6 .500077E-7        0.0    374.295   3.331518   3.675879   13.76558   15.18846    .242018
                         420.    .048862    .025367     .35447    .315517   1.437622    .015597    .005935   838.8606   16.77721
                          0.0        0.0        0.0        0.0        0.0
   2500     .0025  182.918896 -197.85142 14.9325278 182.918896 -197.85142 14.9325278 303114.003 110938.899  -414052.9        0.0
                          0.0        0.0 203.385303 -222.40652 19.0212121 303108.891 110945.554 -414054.45 425.791819 -241.42773
                   -184.36409  380.77032 -212.78395 -167.98637 192175.105   524991.8 -717166.91 .217494059 .228295102 -.44578916
                   .179024E-6 -.19898E-6 .164146E-7        0.0    374.295   3.331518   3.675879   13.76558   15.18846    .242018
                         420.    .048862    .025367     .35447    .315517   1.437622    .015597    .005935   838.8606   16.77721
                          0.0        0.0        0.0        0.0        0.0
   3000      .003  199.892077   -180.247 -19.645082 199.892077   -180.247 -19.645082 251966.249 174345.755   -426312.        0.0
                          0.0        0.0 222.687175 -203.01728 -19.669898 251960.441 174352.016 -426312.46 425.704451 -183.34738
                   -242.35707 380.139073 -160.60191 -219.53716 77620.4933 600657.759 -678278.25 .153933222  .28539124 -.43932446
                   .197419E-6 -.19101E-6 -.20636E-7        0.0    374.295   3.331518   3.675879   13.76558   15.18846    .242018
                         420.    .048862    .025367     .35447    .315517   1.437622    .015597    .005935   838.8606   16.77721
                          0.0        0.0        0.0        0.0        0.0
   3500     .0035  211.930154 -158.19772  -53.73243 211.930154 -158.19772  -53.73243 194614.253 233459.639 -428073.89        0.0
                          0.0        0.0 236.505044 -178.62873 -57.876316 194607.888 233465.353 -428073.24 415.133773 -120.75241
                   -294.38136 370.127878 -104.46529 -265.66258 -38845.386 661533.531 -622688.14 .086575983 .335463127 -.42203911
                   .230145E-6 -.17574E-6 -.54399E-7        0.0    374.295   3.331518   3.675879   13.76558   15.18846    .242018
                         420.    .048862    .025367     .35447    .315517   1.437622    .015597    .005935   838.8606   16.77721
                          0.0        0.0        0.0        0.0        0.0
   4000      .004  218.754897 -132.25566 -86.499241 218.754897 -132.25566 -86.499241 132470.157 286824.997 -419295.15        0.0
                          0.0        0.0 244.499346 -149.84173 -94.657612 132463.443 286829.997 -419293.44 394.341081 -55.184122
                   -339.15696 351.010553 -45.756415 -305.25414 -154354.84 706120.151 -551765.31 .017097985 .377269273 -.39436726
                   .231032E-6 -.14052E-6 -.90527E-7        0.0    374.295   3.331518   3.675879   13.76558   15.18846    .242018
                         420.    .048862    .025367     .35447    .315517   1.437622    .015597    .005935   838.8606   16.77721
                          0.0        0.0        0.0        0.0        0.0
   4500     .0045  220.194153  -103.0575 -117.13665 220.194153  -103.0575 -117.13665 67064.2255 333127.762 -400191.99        0.0
                          0.0        0.0 246.469793 -117.36338 -129.10641 67057.3081 333131.936 -400189.24 363.833173 11.7430326
                   -375.57621 323.251658 14.0791434  -337.3308 -266063.54  733319.75 -467256.21 -.05280173 .409786154 -.35698443
                   .241834E-6 -.10749E-6 -.12013E-6        0.0    374.295   3.331518   3.675879   13.76558   15.18846    .242018
                         420.    .048862    .025367     .35447    .315517   1.437622    .015597    .005935   838.8606   16.77721
                          0.0        0.0        0.0        0.0        0.0
   5000      .005  216.211796 -71.321888 -144.88991 216.211796 -71.321888 -144.88991 6.95947953 371227.812 -371234.77        0.0
                          0.0        0.0 242.378605 -81.998824 -160.37978 -.45661E-7  371231.06 -371231.06 324.377429 78.3809571
                   -402.75839 287.533685 73.5680196  -361.1017 -371220.85 742462.583 -371241.73 -.12140294 .432213571 -.31081063
                   .230635E-6 -.74232E-7 -.14219E-6        0.0    374.295   3.331518   3.675879   13.76558   15.18846    .242018
                         420.    .048862    .025367     .35447    .315517   1.437622    .015597    .005935   838.8606   16.77721
                          0.0        0.0        0.0        0.0        0.0
   5500     .0055  206.905446 -37.830019 -169.07543 206.905446 -37.830019 -169.07543 -67050.475 400186.999 -333136.52        0.0
                          0.0        0.0  232.31575 -44.613419 -187.70233 -67057.308 400189.244 -333131.94 276.929169 143.088913
                   -420.01808 244.735465 131.245408 -375.98087 -467237.47 733323.523 -266086.05 -.18701589 .443998995  -.2569831
                   .217096E-6   -.372E-7 -.17992E-6        0.0    374.295   3.331518   3.675879   13.76558   15.18846    .242018
                         420.    .048862    .025367     .35447    .315517   1.437622    .015597    .005935   838.8606   16.77721
                          0.0        0.0        0.0        0.0        0.0
   6000      .006  192.504665 -3.4067858 -189.09788 192.504665 -3.4067858 -189.09788 -132456.87 419292.238 -286835.37        0.0
                          0.0        0.0  216.53179 -6.1291198 -210.40267 -132463.44  419293.44   -286830.  222.66091 204.273551
                   -426.93446 195.911451 185.691094 -381.60254 -551749.11 706127.604 -154378.49   -.248024 .444851752 -.19682775
                   .198966E-6 -.33985E-8 -.19779E-6        0.0    374.295   3.331518   3.675879   13.76558   15.18846    .242018
                         420.    .048862    .025367     .35447    .315517   1.437622    .015597    .005935   838.8606   16.77721
                          0.0        0.0        0.0        0.0        0.0
   6500     .0065  173.362786 31.1008483 -204.46363 173.362786 31.1008483 -204.46363 -194601.78 428073.131 -233471.35        0.0
                          0.0        0.0 195.416156 32.5060671 -227.92222 -194607.89  428073.24 -233465.35 162.910089 260.428291
                   -423.33838 142.261937 235.564482 -377.82642 -622674.91  661544.48 -38869.566  -.3029265 .434751556 -.13182505
                   .186052E-6 .328573E-7 -.21535E-6        0.0    374.295   3.331518   3.675879   13.76558   15.18846    .242018
                         420.    .048862    .025367     .35447    .315517   1.437622    .015597    .005935   838.8606   16.77721
                          0.0        0.0        0.0        0.0        0.0
   7000      .007  149.952745  64.842357  -214.7951 149.952745  64.842357  -214.7951 -251954.97 426313.454 -174358.48        0.0
                          0.0        0.0 169.488903 70.3407588 -239.82966 -251960.44 426312.457 -174352.02  99.148144  310.17042
                   -409.31856 85.1103885 279.637459 -364.74785 -678268.43 600671.935 77596.4928 -.35036711 .413944913  -.0635778
                   .163481E-6 .731705E-7 -.22243E-6        0.0    374.295   3.331518   3.675879   13.76558   15.18846    .242018
                         420.    .048862    .025367     .35447    .315517   1.437622    .015597    .005935   838.8606   16.77721
                          0.0        0.0        0.0        0.0        0.0
   7500     .0075  122.850768 96.9870366  -219.8378 122.850768 96.9870366  -219.8378 -303104.17  414056.51 -110952.34        0.0
                          0.0        0.0  139.39003 106.442566  -245.8326 -303108.89 414054.446 -110945.55 32.9474637 352.275162
                   -385.22263 25.8637315 316.824841 -342.68857 -717160.68 525008.854 192151.824 -.38918164 .382946135 .006235502
                   .135545E-6 .955872E-7 -.21693E-6        0.0    374.295   3.331518   3.675879   13.76558   15.18846    .242018
                         420.    .048862    .025367     .35447    .315517   1.437622    .015597    .005935   838.8606   16.77721
                          0.0        0.0        0.0        0.0        0.0
   8000      .008   92.723504 126.743717 -219.46722  92.723504 126.743717 -219.46722 -346789.92 391604.117 -44814.194        0.0
                          0.0        0.0 105.855474 139.925093 -245.78057  -346793.8  391601.04 -44807.245 -34.069619 385.705659
                   -351.63604 -34.020213 346.210938 -312.19073 -738394.04 436418.312 301975.728 -.41841392 .342518306 .075895614
                   .958397E-7 .126749E-6 -.22262E-6        0.0    374.295   3.331518   3.675879   13.76558   15.18846    .242018
                         420.    .048862    .025367     .35447    .315517   1.437622    .015597    .005935   838.8606   16.77721
                          0.0        0.0        0.0        0.0        0.0
   8500     .0085  60.3130682 153.379553 -213.69262 60.3130682 153.379553 -213.69262 -381936.56 359509.133 22427.4296        0.0
                          0.0        0.0 69.7165309  169.96115 -239.67768 -381939.48 359505.117 22434.3679 -100.24462 409.638832
                   -309.39421 -93.066485 367.072175 -274.00569 -741445.69 337081.703 404363.992 -.43734366 .293656637 .143687023
                   .661399E-7 .149728E-6 -.23007E-6        0.0    374.295   3.331518   3.675879   13.76558   15.18846    .242018
                         420.    .048862    .025367     .35447    .315517   1.437622    .015597    .005935   838.8606   16.77721
                          0.0        0.0        0.0        0.0        0.0
   9000      .009  26.4152442 176.239821 -202.65507 26.4152442 176.239821 -202.65507 -407678.63 318561.829  89116.805        0.0
                          0.0        0.0 31.8603967 195.812471 -227.67287 -407680.56 318556.985  89123.572 -163.95207  423.48534
                   -259.53326 -149.82458 378.894886 -229.07031 -726240.46 229445.024 496795.439 -.44550114 .237562472 .207938673
                   .266876E-7 .180293E-6 -.21765E-6        0.0    374.295   3.331518   3.675879   13.76558   15.18846    .242018
                         420.    .048862    .025367     .35447    .315517   1.437622    .015597    .005935   838.8606   16.77721
                          0.0        0.0        0.0        0.0        0.0
   9500     .0095  -8.1278506 194.757901 -186.63005 -8.1278506 194.757901 -186.63005 -423382.36 269770.503 153611.856        0.0
                          0.0        0.0 -6.7798871 216.842057 -210.06217 -423383.18 269764.922 153618.258 -223.62194 426.904226
                   -203.28228 -202.88575 381.387952  -178.5022 -693152.86 116158.647 576994.215 -.44269557 .175622046 .267073528
                   -.88522E-8 .190012E-6 -.18295E-6        0.0    374.295   3.331518   3.675879   13.76558   15.18846    .242018
                         420.    .048862    .025367     .35447    .315517   1.437622    .015597    .005935   838.8606   16.77721
                          0.0        0.0        0.0        0.0        0.0
  10000       .01  -42.474527 208.482244 -166.00772 -42.474527 208.482244 -166.00772 -428660.99 214336.523 214324.465        0.0
                          0.0        0.0 -45.253355 232.532333 -187.27898 -428660.71 214330.353 214330.352 -277.78569 419.811312
                   -142.02562 -250.95677  374.48996 -123.53319 -642997.51 12.0583491 642985.452 -.42898563 .109355356  .31963027
                   -.44988E-7 .226068E-6 -.15977E-6        0.0    374.295   3.331518   3.675879   13.76558   15.18846    .242018
                         420.    .048862    .025367     .35447    .315517   1.437622    .015597    .005935   838.8606   16.77721
                          0.0        0.0        0.0        0.0        0.0
  10500     .0105  -75.774483 217.072638 -141.29816 -75.774483 217.072638 -141.29816 -423384.54 153624.856 269759.683        0.0
                          0.0        0.0 -82.610877 242.496075  -159.8852 -423383.18 153618.258 269764.922 -325.10695 402.381273
                   -77.274321 -292.84712 358.370794 -65.523672  -577009.4 -116134.83 693144.223 -.40471238 .040395857 .364316526
                   -.77736E-7 .226321E-6  -.1486E-6        0.0    374.295   3.331518   3.675879   13.76558   15.18846    .242018
                         420.    .048862    .025367     .35447    .315517   1.437622    .015597    .005935   838.8606   16.77721
                          0.0        0.0        0.0        0.0        0.0
  11000      .011  -107.20885 220.318097 -113.10925 -107.20885 220.318097 -113.10925 -407682.96 89130.4367 318552.524        0.0
                          0.0        0.0 -117.93851 246.490876 -128.55237 -407680.56  89123.572 318556.985 -364.42938 375.043243
                   -10.613859 -327.52695 333.427344 -5.9003969  -496813.4 -229422.09 726235.485 -.37047374 -.02955834 .400032081
                   -.11418E-6  .23848E-6  -.1243E-6        0.0    374.295   3.331518   3.675879   13.76558   15.18846    .242018
                         420.    .048862    .025367     .35447    .315517   1.437622    .015597    .005935   838.8606   16.77721
                          0.0        0.0        0.0        0.0        0.0
  11500     .0115  -136.00319 218.138499 -82.135307 -136.00319 218.138499 -82.135307 -381942.88 22441.3332 359501.548        0.0
                          0.0        0.0 -150.35822 244.414318 -94.056096 -381939.48 22434.3679 359505.117 -394.77254 338.470415
                   56.3021252 -354.14169 300.273806 53.8678851 -404384.21 -337060.21 741444.429 -.32711322 -.09878451 .425897729
                   -.14862E-6 .230635E-6 -.82007E-7        0.0    374.295   3.331518   3.675879   13.76558   15.18846    .242018
                         420.    .048862    .025367     .35447    .315517   1.437622    .015597    .005935   838.8606   16.77721
                          0.0        0.0        0.0        0.0        0.0
  12000      .012  -161.44917 210.587859 -49.138691 -161.44917 210.587859 -49.138691  -346798.1 -44800.351  391598.45        0.0
                          0.0        0.0 -179.07693 236.320128 -57.243196  -346793.8 -44807.245  391601.04 -415.39706 293.563323
                   121.833736 -372.03703  259.72655 112.310478 -301997.75  -436398.8 738396.549 -.27569393 -.16558035 .441274285
                   -.16037E-6 .208275E-6 -.55014E-7        0.0    374.295   3.331518   3.675879   13.76558   15.18846    .242018
                         420.    .048862    .025367     .35447    .315517   1.437622    .015597    .005935   838.8606   16.77721
                          0.0        0.0        0.0        0.0        0.0
  12500     .0125  -182.91802 197.850984 -14.932962 -182.91802 197.850984 -14.932962 -303114.01  -110938.9 414052.905        0.0
                          0.0        0.0 -203.38609 222.406907 -19.020815 -303108.89 -110945.55 414054.446   -425.793 241.427722
                   184.365278 -380.76901 212.783946  167.98506 -192175.11  -524991.8 717166.913 -.21749629 -.22829399 .445790278
                   -.19969E-6  .21052E-6 -.16146E-7        0.0    374.295   3.331518   3.675879   13.76558   15.18846    .242018
                         420.    .048862    .025367     .35447    .315517   1.437622    .015597    .005935   838.8606   16.77721
                          0.0        0.0        0.0        0.0        0.0
  13000      .013  -199.88536 180.243625 19.6417341 -199.88536 180.243625 19.6417341 -251966.23 -174345.76 426311.997        0.0
                          0.0        0.0 -222.68731 203.017341 19.6699732 -251960.44 -174352.02 426312.457 -425.70466 183.347368
                   242.357288 -380.12898 160.601891 219.527094 -77620.472 -600657.76 678278.232 -.15393551 -.28539009 .439325604
                   -.20475E-6 .193762E-6 .216751E-7        0.0    374.295   3.331518   3.675879   13.76558   15.18846    .242018
                         420.    .048862    .025367     .35447    .315517   1.437622    .015597    .005935   838.8606   16.77721
                          0.0        0.0        0.0        0.0        0.0
  13500     .0135  -211.92946 158.197376 53.7320815 -211.92946 158.197376 53.7320815 -194614.21 -233459.66  428073.87        0.0
                          0.0        0.0 -236.50593  178.62917 57.8767558 -194607.89 -233465.35  428073.24  -415.1351 120.752414
                   294.382681 -370.12683 104.465294 265.661539 38845.4513 -661533.53  622688.08 -.08658502  -.3354586  .42204362
                   -.22273E-6 .179635E-6 .573018E-7        0.0    374.295   3.331518   3.675879   13.76558   15.18846    .242018
                         420.    .048862    .025367     .35447    .315517   1.437622    .015597    .005935   838.8606   16.77721
                          0.0        0.0        0.0        0.0        0.0
  14000      .014  -218.75513 132.255767 86.4993583 -218.75513 132.255767 86.4993583 -132470.14   -286825. 419295.147        0.0
                          0.0        0.0 -244.49985 149.841981 94.6578668 -132463.44   -286830.  419293.44 -394.34183 55.1841144
                   339.157715 -351.01089 45.7564084 305.254483 154354.861 -706120.15  551765.29 -.01710292  -.3772668 .394369724
                   -.21508E-6 .144562E-6 .847285E-7        0.0    374.295   3.331518   3.675879   13.76558   15.18846    .242018
                         420.    .048862    .025367     .35447    .315517   1.437622    .015597    .005935   838.8606   16.77721
                          0.0        0.0        0.0        0.0        0.0
  14500     .0145   -220.1944 103.057624 117.136776  -220.1944 103.057624 117.136776 -67064.225 -333127.76 400191.987        0.0
                          0.0        0.0 -246.47271 117.364853 129.107853 -67057.308 -333131.94 400189.244 -363.83756    -11.743
                   375.580558 -323.25202 -14.079152 337.331177 266063.538 -733319.75 467256.212 .052799581 -.40978508 .356985499
                    -.2241E-6 .112828E-6 .125488E-6        0.0    374.295   3.331518   3.675879   13.76558   15.18846    .242018
                         420.    .048862    .025367     .35447    .315517   1.437622    .015597    .005935   838.8606   16.77721
                          0.0        0.0        0.0        0.0        0.0
  % % % % % %   Suspended simulation;  plot data space exhausted;  SPY SPACE is required.   LIMBUF =  840000.
  % % % % % %   Suspended simulation;  plot data space exhausted;  SPY SPACE is required.   LIMBUF =  840000.
  +++  Time-sharing disabled.   Send  user-keyed interrupt to silence alarm.
   Current values.  INDBUF  INDBEG  LIMBUF  MFLUSH  NUMDCD  KCARD1  KCARD2
                    839994      50  840000    1000     230       1     231
Plot timespan now in memory (in sec) = 0.00000000E+00   1.49990000E-02
   ++++  Begin plot-data copy from memory to disk.   MFLUSH, INDBUF, N4, Tbeg,  Tend = 1001  839994       1  -1.00000E+00
1.00000E+19
  15000      .015  -216.21047 71.3212229 144.889245 -216.21047 71.3212229 144.889245 -6.9718227 -371227.81 371234.777        0.0
                          0.0        0.0 -242.37792 81.9984829  160.37944 -.61533E-6 -371231.06  371231.06 -324.37641 -78.380958
                   402.757364 -287.53169 -73.568022 361.099713 371220.834 -742462.58 371241.749 .121404454 -.43221433 .310809875
                   -.22816E-6 .752297E-7 .138709E-6        0.0    374.295   3.331518   3.675879   13.76558   15.18846    .242018
                         420.    .048862    .025367     .35447    .315517   1.437622    .015597    .005935   838.8606   16.77721
                          0.0        0.0        0.0        0.0        0.0
  15500     .0155  -206.90551 37.8300485 169.075464 -206.90551 37.8300485 169.075464 67050.4789   -400187. 333136.522        0.0
                          0.0        0.0 -232.31498 44.6130314 187.701953 67057.3081 -400189.24 333131.936 -276.92802 -143.08892
                   420.016938 -244.73556 -131.24542 375.980976  467237.48 -733323.52 266086.043 .187013554 -.44399782  .25698427
                   -.22569E-6 .408851E-7 .170607E-6        0.0    374.295   3.331518   3.675879   13.76558   15.18846    .242018
                         420.    .048862    .025367     .35447    .315517   1.437622    .015597    .005935   838.8606   16.77721
                          0.0        0.0        0.0        0.0        0.0
  16000      .016  -192.50492 3.40690316 189.098018 -192.50492 3.40690316 189.098018 132456.903 -419292.25  286835.35        0.0
                          0.0        0.0 -216.53141 6.12892503 210.402487 132463.443 -419293.44 286829.997 -222.66034 -204.27356
                   426.933899 -195.91182 -185.69111 381.602938 551749.157  -706127.6 154378.447 .248024428 -.44485196 .196827529
                   -.21131E-6 .372059E-8 .195141E-6        0.0    374.295   3.331518   3.675879   13.76558   15.18846    .242018
                         420.    .048862    .025367     .35447    .315517   1.437622    .015597    .005935   838.8606   16.77721
                          0.0        0.0        0.0        0.0        0.0
  16500     .0165  -173.36335 -31.100563 204.463911 -173.36335 -31.100563 204.463911 194601.808 -428073.14 233471.336        0.0
                          0.0        0.0 -195.41736 -32.505463  227.92282 194607.888 -428073.24 233465.353 -162.91189 -260.42828
                   423.340176 -142.26278 -235.56447  377.82726 622674.951 -661544.48 38869.5284 .302926004  -.4347513 .131825297
                   -.18206E-6 -.31861E-7 .203261E-6        0.0    374.295   3.331518   3.675879   13.76558   15.18846    .242018
                         420.    .048862    .025367     .35447    .315517   1.437622    .015597    .005935   838.8606   16.77721
                          0.0        0.0        0.0        0.0        0.0
  17000      .017   -149.9531 -64.842184  214.79528  -149.9531 -64.842184  214.79528 251954.965 -426313.45 174358.485        0.0
                          0.0        0.0 -169.48853 -70.340949  239.82948 251960.441 -426312.46 174352.016 -99.147582 -310.17043
                   409.318011 -85.110912 -279.63746 364.748376 678268.415 -600671.93  -77596.48 .350368001 -.41394536 .063577358
                   -.15089E-6 -.63978E-7 .229076E-6        0.0    374.295   3.331518   3.675879   13.76558   15.18846    .242018
                         420.    .048862    .025367     .35447    .315517   1.437622    .015597    .005935   838.8606   16.77721
                          0.0        0.0        0.0        0.0        0.0
  17500     .0175  -122.85081  -96.98702 219.837831 -122.85081  -96.98702 219.837831 303104.157 -414056.51 110952.348        0.0
                          0.0        0.0 -139.38797 -106.44359 245.831554 303108.891 -414054.45 110945.554 -32.944379 -352.27514
                   385.219521 -25.863792 -316.82485 342.688642 717160.663 -525008.85 -192151.81 .389182621 -.38294663 -.00623599
                   -.12175E-6 -.10794E-6  .24389E-6        0.0    374.295   3.331518   3.675879   13.76558   15.18846    .242018
                         420.    .048862    .025367     .35447    .315517   1.437622    .015597    .005935   838.8606   16.77721
                          0.0        0.0        0.0        0.0        0.0
  18000      .018  -92.722973 -126.74399  219.46696 -92.722973 -126.74399  219.46696 346789.912 -391604.11 44814.1998        0.0
                          0.0        0.0  -105.8557 -139.92499 245.780681 346793.795 -391601.04 44807.2448 34.0692895 -385.70567
                   351.636376 34.0210154 -346.21095 312.189933 738394.024 -436418.31 -301975.71 .418415053 -.34251888 -.07589618
                   -.91354E-7 -.12731E-6 .232874E-6        0.0    374.295   3.331518   3.675879   13.76558   15.18846    .242018
                         420.    .048862    .025367     .35447    .315517   1.437622    .015597    .005935   838.8606   16.77721
                          0.0        0.0        0.0        0.0        0.0
  18500     .0185  -60.313422 -153.37938 213.692801 -60.313422 -153.37938 213.692801  381936.57 -359509.14 -22427.433        0.0
                          0.0        0.0   -69.7166 -169.96112  239.67772 381939.485 -359505.12 -22434.368  100.24452 -409.63884
                   309.394321 93.0659572 -367.07218 274.006223 741445.706  -337081.7   -404364. .437343454 -.29365653 -.14368692
                   -.59811E-7  -.1648E-6 .217522E-6        0.0    374.295   3.331518   3.675879   13.76558   15.18846    .242018
                         420.    .048862    .025367     .35447    .315517   1.437622    .015597    .005935   838.8606   16.77721
                          0.0        0.0        0.0        0.0        0.0
  19000      .019  -26.417686  -176.2386 202.656289 -26.417686  -176.2386 202.656289 407678.654 -318561.84 -89116.815        0.0
                          0.0        0.0 -31.860628 -195.81236 227.672989 407680.557 -318556.98 -89123.572 163.951732 -423.48535
                   259.533617 149.820917 -378.89489 229.073974 726240.493 -229445.02 -496795.47 .445505156 -.23756447 -.20794068
                   -.27109E-7 -.17362E-6  .20428E-6        0.0    374.295   3.331518   3.675879   13.76558   15.18846    .242018
                         420.    .048862    .025367     .35447    .315517   1.437622    .015597    .005935   838.8606   16.77721
                          0.0        0.0        0.0        0.0        0.0
  19500     .0195  8.12876042 -194.75835 186.629592 8.12876042 -194.75835 186.629592 423382.354  -269770.5 -153611.85        0.0
                          0.0        0.0 6.78025414 -216.84223  210.06198  423383.18 -269764.92 -153618.26 223.622489 -426.90421
                   203.281726 202.887113 -381.38794 178.500831 693152.855 -116158.65 -576994.21 .442695487   -.175622 -.26707348
                   .781497E-8 -.20607E-6 .192929E-6        0.0    374.295   3.331518   3.675879   13.76558   15.18846    .242018
                         420.    .048862    .025367     .35447    .315517   1.437622    .015597    .005935   838.8606   16.77721
                          0.0        0.0        0.0        0.0        0.0
  20000       .02  42.4745935 -208.48228 166.007687 42.4745935 -208.48228 166.007687 428660.972 -214336.52 -214324.46        0.0
                          0.0        0.0  45.253365 -232.53234  187.27898 428660.705 -214330.35 -214330.35 277.785709 -419.81132
                   142.025615 250.956874 -374.48997 123.533094 642997.487 -12.058338 -642985.43 .428985105  -.1093551 -.31963001
                   .413407E-7 -.22875E-6 .180298E-6        0.0    374.295   3.331518   3.675879   13.76558   15.18846    .242018
                         420.    .048862    .025367     .35447    .315517   1.437622    .015597    .005935   838.8606   16.77721
                          0.0        0.0        0.0        0.0        0.0
  20500     .0205  75.7745698 -217.07269 141.298117 75.7745698 -217.07269 141.298117 423384.534 -153624.85 -269759.68        0.0
                          0.0        0.0 82.6124552 -242.49686 159.884406  423383.18 -153618.26 -269764.92 325.109317 -402.38127
                   77.2719513 292.847257  -358.3708 65.5235475 577009.387 116134.827 -693144.21 .404712014 -.04039567 -.36431634
                   .792043E-7 -.24034E-6 .161133E-6        0.0    374.295   3.331518   3.675879   13.76558   15.18846    .242018
                         420.    .048862    .025367     .35447    .315517   1.437622    .015597    .005935   838.8606   16.77721
                          0.0        0.0        0.0        0.0        0.0
  21000      .021  107.207448  -220.3174 113.109952 107.207448  -220.3174 113.109952 407682.965 -89130.438 -318552.53        0.0
                          0.0        0.0  117.93708 -246.49016 128.553084 407680.557 -89123.572 -318556.98 364.427243 -375.04325
                   10.6160038 327.524849 -333.42735 5.90250388 496813.403 229422.088 -726235.49 .370474152 .029558137 -.40003229
                   .118852E-6 -.22767E-6 .123015E-6        0.0    374.295   3.331518   3.675879   13.76558   15.18846    .242018
[...]
                         420.    .048862    .025367     .35447    .315517   1.437622    .015597    .005935   838.8606   16.77721
                          0.0        0.0        0.0        0.0        0.0
 113000      .113  -221293.79 -207794.15 429087.939 -221293.79 -207794.15 429087.939 -221293.79 -207794.15 429087.939        0.0
                          0.0        0.0 -193021.74 -281675.09 474696.835 -251960.44 -174352.02 426312.457 88653.3514 -756371.93
                   667718.577 -13499.643 -636882.09  650381.73  -13499.64 -636882.09 650381.729 810.177437 -726.01821 -84.159227
                   -.24549E-3 -.21427E-3 .459701E-3        0.0    374.295   3.331518   3.675879   13.76558   15.18846    .242018
                         420.    .048862    .025367     .35447    .315517   1.437622    .015597    .005935   838.8606   16.77721
                          0.0        0.0        0.0        0.0        0.0
 113500     .1135  -189800.89 -245136.76 434937.644 -189800.89 -245136.76 434937.644 -189800.88 -245136.76 434937.643        0.0
                          0.0        0.0 -57281.431 -380531.25 437812.676 -194607.89 -233465.35  428073.24 323249.814 -818343.92
                   495094.107 55335.8732  -680074.4 624738.529 55335.8752  -680074.4 624738.527 555.516222 -441.14014 -114.37608
                   -.21319E-3 -.26449E-3 .506669E-3        0.0    374.295   3.331518   3.675879   13.76558   15.18846    .242018
                         420.    .048862    .025367     .35447    .315517   1.437622    .015597    .005935   838.8606   16.77721
                          0.0        0.0        0.0        0.0        0.0
 114000      .114  -168620.21 -269294.82  437915.03 -168620.21 -269294.82  437915.03 -168620.21 -269294.82 437915.029        0.0
                          0.0        0.0  -92304.47 -346778.81 439083.283 -132463.44   -286830.  419293.44 254474.343  -785862.1
                   531387.754 100674.604 -707209.85 606535.243 100674.607 -707209.85 606535.241 657.007961 -436.43145 -220.57651
                   -.17383E-3 -.28314E-3 .515252E-3        0.0    374.295   3.331518   3.675879   13.76558   15.18846    .242018
                         420.    .048862    .025367     .35447    .315517   1.437622    .015597    .005935   838.8606   16.77721
                          0.0        0.0        0.0        0.0        0.0
 114500     .1145  -68413.072 -338606.01 407019.084 -68413.072 -338606.01 407019.084 -68413.071 -338606.01 407019.083        0.0
                          0.0        0.0 -28976.186  -381495.4 410471.584 -67057.308 -333131.94 400189.244 352519.213 -791966.98
                    439447.77  270192.94  -745625.1 475432.156 270192.941  -745625.1 475432.155 503.229321 -235.77192  -267.4574
                   -.67903E-4 -.39417E-3 .447571E-3        0.0    374.295   3.331518   3.675879   13.76558   15.18846    .242018
                         420.    .048862    .025367     .35447    .315517   1.437622    .015597    .005935   838.8606   16.77721
                          0.0        0.0        0.0        0.0        0.0
 115000      .115  21412.1915 -390633.43 369221.242 21412.1915 -390633.43 369221.242 21412.1921 -390633.43 369221.242        0.0
                          0.0        0.0 -45734.292  -359232.2 404966.494 .127058E-4 -371231.06  371231.06  313497.91  -764198.7
                   450700.786 412045.625 -759854.68 347809.051 412045.626 -759854.68  347809.05 283.581523 -23.705982 -259.87554
                   .242352E-4 -.40635E-3 .429302E-3        0.0    374.295   3.331518   3.675879   13.76558   15.18846    .242018
                         420.    .048862    .025367     .35447    .315517   1.437622    .015597    .005935   838.8606   16.77721
                          0.0        0.0        0.0        0.0        0.0
 115500     .1155   36572.138 -384668.09 348095.952  36572.138 -384668.09 348095.952  36572.139 -384668.09 348095.951        0.0
                          0.0        0.0 6362.68876 -385962.64 379599.951 67057.3081 -400189.24 333131.936 392325.328 -765562.59
                   373237.262 421240.228 -732764.04 311523.814 421240.229 -732764.04 311523.812 482.770858 -134.12522 -348.64564
                   .364375E-4 -.44252E-3 .355154E-3        0.0    374.295   3.331518   3.675879   13.76558   15.18846    .242018
                         420.    .048862    .025367     .35447    .315517   1.437622    .015597    .005935   838.8606   16.77721
                          0.0        0.0        0.0        0.0        0.0
 116000      .116   94938.747 -398265.65 303326.907  94938.747 -398265.65 303326.907  94938.748 -398265.65 303326.906        0.0
                          0.0        0.0 53352.3829 -393709.31  340356.93 132463.443 -419293.44 286829.997 447061.696 -734066.24
                   287004.547 493204.401 -701592.56  208388.16 493204.402 -701592.56 208388.158 512.343981 -90.253226 -422.09075
                   .108674E-3 -.41257E-3  .33313E-3        0.0    374.295   3.331518   3.675879   13.76558   15.18846    .242018
                         420.    .048862    .025367     .35447    .315517   1.437622    .015597    .005935   838.8606   16.77721
                          0.0        0.0        0.0        0.0        0.0
 116500     .1165   168700.56 -420850.24 252149.681  168700.56 -420850.24 252149.681 168700.562 -420850.24  252149.68        0.0
                          0.0        0.0 92750.7394 -396484.05  303733.31 194607.888 -428073.24 233465.353 489234.789 -700217.36
                    210982.57 589550.801 -672999.92 83449.1207 589550.803 -672999.92 83449.1179 814.616705 -227.61385 -587.00286
                   .197872E-3 -.48932E-3  .26229E-3        0.0    374.295   3.331518   3.675879   13.76558   15.18846    .242018
                         420.    .048862    .025367     .35447    .315517   1.437622    .015597    .005935   838.8606   16.77721
                          0.0        0.0        0.0        0.0        0.0
 117000      .117   276384.42  -458213.3 181828.876  276384.42  -458213.3 181828.876 276384.422  -458213.3 181828.874        0.0
                          0.0        0.0 166621.236  -424293.6 257672.368 251960.441 -426312.46 174352.016 590914.839 -681965.97
                   91051.1325 734597.715 -640042.17 -94555.544 734597.718 -640042.17 -94555.548 1007.17084 -252.69943 -754.47142
                   .274177E-3 -.51182E-3 .208586E-3        0.0    374.295   3.331518   3.675879   13.76558   15.18846    .242018
                         420.    .048862    .025367     .35447    .315517   1.437622    .015597    .005935   838.8606   16.77721
                          0.0        0.0        0.0        0.0        0.0
 117500     .1175  269207.306 -399504.55  130297.24 269207.306 -399504.55  130297.24 269207.308 -399504.55 130297.238        0.0
                          0.0        0.0  224096.08  -420624.3 196528.222 303108.891 -414054.45 110945.554 644720.381 -617152.52
                   -27567.858 668711.852 -529801.79 -138910.07 668711.854 -529801.78 -138910.07  838.17367 -26.333582 -811.84009
                   .318844E-3 -.42312E-3 .148043E-3        0.0    374.295   3.331518   3.675879   13.76558   15.18846    .242018
                         420.    .048862    .025367     .35447    .315517   1.437622    .015597    .005935   838.8606   16.77721
                          0.0        0.0        0.0        0.0        0.0
 118000      .118  331623.333 -394047.23 62423.9007 331623.333 -394047.23 62423.9007 331623.335 -394047.23 62423.8989        0.0
                          0.0        0.0 379008.927 -480898.58 101889.657 346793.795 -391601.04 44807.2447  859907.51 -582788.24
                   -277119.27 725670.566 -456471.13 -269199.43 725670.568 -456471.13 -269199.44 919.677553 11.4672225 -931.14478
                    .38366E-3 -.42184E-3 .673085E-4        0.0    374.295   3.331518   3.675879   13.76558   15.18846    .242018
                         420.    .048862    .025367     .35447    .315517   1.437622    .015597    .005935   838.8606   16.77721
                          0.0        0.0        0.0        0.0        0.0
 118500     .1185  428936.784 -408104.64 -20832.142 428936.784 -408104.64 -20832.142 428936.786 -408104.64 -20832.144        0.0
                          0.0        0.0 528638.189 -519461.99  -9176.199 381939.485 -359505.12 -22434.368   .10481E7 -510285.79
                   -537814.39 837041.426  -387272.5 -449768.93 837041.428  -387272.5 -449768.93 977.186534  86.338053 -1063.5246
                   .495045E-3 -.44042E-3 -.21979E-4        0.0    374.295   3.331518   3.675879   13.76558   15.18846    .242018
                         420.    .048862    .025367     .35447    .315517   1.437622    .015597    .005935   838.8606   16.77721
                          0.0        0.0        0.0        0.0        0.0
 119000      .119  404366.075 -324867.73 -79498.344 404366.075 -324867.73 -79498.344 404366.076 -324867.73 -79498.346        0.0
                          0.0        0.0 486284.267 -410352.45 -75931.816 407680.557 -318556.98 -89123.572 896636.718 -334420.64
                   -562216.08 729233.806 -245369.39 -483864.42 729233.806 -245369.38 -483864.42 672.215295 384.102174 -1056.3175
                     .4697E-3 -.38839E-3 -.95837E-4        0.0    374.295   3.331518   3.675879   13.76558   15.18846    .242018
                         420.    .048862    .025367     .35447    .315517   1.437622    .015597    .005935   838.8606   16.77721
                          0.0        0.0        0.0        0.0        0.0
 119500     .1195  480907.051 -316289.08 -164617.97 480907.051 -316289.08 -164617.97 480907.052 -316289.08 -164617.98        0.0
                          0.0        0.0 563339.519 -390652.58 -172686.94  423383.18 -269764.92 -153618.26 953992.099 -217965.64
                   -736026.46 797196.128  -151671.1 -645525.03 797196.127  -151671.1 -645525.03 364.764499  649.41173 -1014.1762
                   .542971E-3 -.37784E-3 -.19421E-3        0.0    374.295   3.331518   3.675879   13.76558   15.18846    .242018
                         420.    .048862    .025367     .35447    .315517   1.437622    .015597    .005935   838.8606   16.77721
                          0.0        0.0        0.0        0.0        0.0
  % % % % % %   Suspended simulation;  plot data space exhausted;  SPY SPACE is required.   LIMBUF =  840000.
  % % % % % %   Suspended simulation;  plot data space exhausted;  SPY SPACE is required.   LIMBUF =  840000.
  +++  Time-sharing disabled.   Send  user-keyed interrupt to silence alarm.
   Current values.  INDBUF  INDBEG  LIMBUF  MFLUSH  NUMDCD  KCARD1  KCARD2
                    839994      50  840000    1007     230       1     231
Plot timespan now in memory (in sec) = 1.04985997E-01   1.19985000E-01
   ++++  Begin plot-data copy from memory to disk.   MFLUSH, INDBUF, N4, Tbeg,  Tend = 1008  839994       1  -1.00000E+00
1.00000E+19
 120000       .12  494186.604 -260209.65 -233976.95 494186.604 -260209.65 -233976.95 494186.603 -260209.65 -233976.96        0.0
                          0.0        0.0 673064.141 -384140.61 -288923.53 428660.705 -214330.35 -214330.35 .1057205E7 -95217.087
                   -961987.67 754396.254 -26232.696 -728163.56 754396.251 -26232.693 -728163.56 -161.94577  1012.8768 -850.93103
                   .544992E-3 -.27949E-3 -.26558E-3        0.0    374.295   3.331518   3.675879   13.76558   15.18846    .242018
                         420.    .048862    .025367     .35447    .315517   1.437622    .015597    .005935   838.8606   16.77721
                          0.0        0.0        0.0        0.0        0.0

Extrema of output variables follow.   Order and column positioning are the same as for the preceding time-step loop output.
Variable maxima :  621660.337  467733.71 442561.829 621660.337  467733.71 442561.829 621660.338  467733.71 442561.829        0.0
                          0.0        0.0 881159.991 637002.899 500834.023 428660.705 428660.703 428660.703 .1367378E7 849629.627
                   .1312795E7 .1045443E7 783215.721 871725.802 .1045443E7 783215.721 871725.799 1784.39083  1771.4248 1457.13169
                   .760214E-3 .551649E-3 .528365E-3        0.0    374.295   3.331518   3.675879   13.76558   15.18846    .242018
                         420.    .048862    .025367     .35447    .315517   1.437622    .015597    .005935   838.8606   16.77721
                          0.0        0.0        0.0        0.0        0.0
Times of maxima :     .059521    .087531    .113904    .059521    .087531    .113904    .059521    .087531    .113904        0.0
                          0.0        0.0    .060901    .068407    .071106        0.0    .006667    .113333    .059452    .064057
                      .070645    .059502    .084881    .071953    .059502    .084881    .071953    .072252    .061072    .069066
                      .059507    .107229    .113957        0.0        0.0        0.0        0.0        0.0        0.0        0.0
                          0.0        0.0        0.0        0.0        0.0        0.0        0.0        0.0        0.0        0.0
                          0.0        0.0        0.0        0.0        0.0
Variable minima :  -555789.22 -474425.15 -460971.44 -555789.22 -474425.15 -460971.44 -555789.22 -474425.15 -460971.44        0.0
                          0.0        0.0 -841469.86 -669313.04 -558931.46 -428660.71  -428660.7  -428660.7  -.12756E7 -859649.73
                   -.143459E7 -920800.35 -779668.45 -884069.58 -920800.35 -779668.45 -884069.58  -1929.012 -1612.8987 -1557.8524
                    -.6751E-3 -.56271E-3 -.54958E-3        0.0    374.295   3.331518   3.675879   13.76558   15.18846    .242018
                         420.    .048862    .025367     .35447    .315517   1.437622    .015597    .005935   838.8606   16.77721
                          0.0        0.0        0.0        0.0        0.0
Times of minima :     .069625    .117055    .062375    .069625    .117055    .062375    .069625    .117055    .062375        0.0
                          0.0        0.0    .070586    .058392    .060967        .01    .016667    .103333    .069857    .073795
                      .060912    .069331    .095015    .081759    .069331    .095015    .081759     .06249    .070939    .059342
                      .069373    .117165    .062384        0.0        0.0        0.0        0.0        0.0        0.0        0.0
                          0.0        0.0        0.0        0.0        0.0        0.0        0.0        0.0        0.0        0.0
                          0.0        0.0        0.0        0.0        0.0

Blank card terminating all plot cards.            |BLANK PLOT

Memory storage figures for the preceding, now-completed data case.  -------------------------------  Present   Program
A value of  "-9999"  indicates that no figure is available.         28-Feb-22  19:11:02              figure     limit  (name)
     Size List 1.   Number of electric network nodes.                                                   37      6000  (LBUS)
     Size List 2.   Number of electric network branches.                                                39     10000  (LBRNCH)
     Size List 3.   Number of data values in R, L, C tables.                                            45    192000  (LDATA)
     Size List 4.   Number of electric network sources.                                                  3       900  (LEXCT)
     Size List 5.   Storage for [Y] and triangularized [Y].   No. times =    3     Factors =    66     189    420000  (LYMAT)
     Size List 6.   Number of entries in switch table.                  No. flops = 18                  21      1200  (LSWTCH)
     Size List 7.   Number of distinct ALPHANUMERIC data names plus program SPY variables.              25     15000  (LSIZE7)
     Size List 8.   History points of distributed lines.                                              4919    120000  (LPAST)
     Size List 9.   Number of nonlinear elements.                                                        0      2250  (LNONL)
     Size List 10.  Points of nonlinear characteristics.                                                 0      3800  (LCHAR)
     Size List 11.  Number of Type-59 S.M. outputs.                                                      0       720  (LSMOUT)
     Size List 12.  Total number of EMTP output variables.                                              55      2000  (LSIZ12)
     Size List 13.  Working space for batch/SPY plotting.                                            -9999     72800  (LSIZ13)
     Size List 14.  S.M./U.M. connections to TACS.                                                   -9999       510  (LBSTAC)
     Size List 15.  Character storage in bytes for MODELS.                                            3298     90000  (LCTACS)
     Size List 16.  Total number of Type-59 S.M. masses.                                                 0       800  (LIMASS)
     Size List 17.  Number of Type-59 Synchronous machines.                                              0        90  (LSYN)
     Size List 18.  Branch and switch power/energy outputs.                                              0       254  (MAXPE)
     Size List 19.  Total floating-point TACS table space.                                              23    120000  (LTACST)
     Size List 20.  Non-copied recursive convolution data.                                               0    100000  (LFSEM)
     Size List 21.  Total modal/phase [T] matrix storage.                                                9      3000  (LFD)
     Size List 22.  Total recursive convolution history.                                                 0     15000  (LHIST)
     Size List 23.  Giant vectors for renumbering, phasors;  also extrema accumulation.                  93    192000  (LSIZ23)
     Size List 24.  Peak phases of compensation for data.                                                0       120  (LCOMP)
     Size List 25.  Total table space for all U.M usage.                                             -9999     45000  (LSPCUM)
     Size List 26.  Square of max number of coupled phases.                                              9    260000  (LSIZ26)
     Size List 27.  Maximum number of MODELS top variables.                                             44       600  (LSIZ27)
     Size List 28.  MODELS.  Total work space is divided into INTEGER and REAL.  1st, REAL:           1780    210000  (LRTACS)
                             Second  and last,  statistics for INTEGER work space.                    6838         0  (LITACS)
     Size List 29.  RAM disk used by "TAPSAV" table saving (limit is "LABCOM" size LTLABL).          -9999       600  (LSIZ29)
     Size List 30.  Taku Noda frequency-dependent circuits.                                              0        19  (LSIZ30)
Timing figures characterizing central processor (CP) solution speed.  ----------------------------   CP sec  Wait sec  Real sec
     Data input time (through blank card ending branches) ....                                       0.000     0.000     0.000
     Node renumbering and phasor solution  ....                                                      0.047     0.000     0.047
     After phasor solution, but before time-step loop  ....                                          0.000     0.000     0.000
     Integration of equations (time-step loop)  ....                                                 1.109     0.000     1.109
     Plotting or STATISTICS termination overlays ....                                                0.016     0.000     0.016
                                                                                                    ---------------------------
                                                                                          Totals      1.172     0.000     1.172

