   ---   236   cards of disk file read into card cache cells  1   onward.
 Comment card is ignored.      |C   LBUS  LBRNCH   LDATA   LEXCT   LYMAT  LSWTCH
 Limit CIDEAL cards =   200    |CARDS        200 { Limit of CIDEAL will be 2 mor
 1st card (Lists  1-10).       |    6000   10000  192000     900  420000    120
 Comment card is ignored.      |C LSMOUT  LSIZ12  LSIZ13  LBSTAC  LCTACS  LIMASS
 2nd card (Lists 11-20).       |     720    2000   72800     510   90000     80
 Comment card is ignored.      |C    LFD   LHIST  LSIZ23   NCOMP  LSPCUM  LSIZ26
 3rd card (Lists 21-30).       |    3000   15000  192000     120   45000  26000
 4th card (Lists 31-32).       |     200     300     { Optional card for Lists
 Comment card is ignored.      |C  LWORK  LMARTI
 Supplemental offsets.         |  840000     742
 <===> Done with  "/"-card sorting by data class.    Remember that the source file appears different from interpreted input data.
Alternative Transients Program (ATP),  GNU Linux or DOS.  All rights reserved by Can/Am user group of Portland, Oregon, USA.
 Date (dd-mth-yy) and time of day (hh.mm.ss) = 28-Feb-22  19:19:02   Name of disk plot file is  tp\bdfinalisima\energizacion676.pl4
Consult the 860-page ATP Rule Book of the Can/Am EMTP User Group in Portland,  Oregon, USA.  Source code date is 12 August 2008.
Total size of LABCOM tables = 10913436 INTEGER words.  31 VARDIM  List Sizes follow:  6002  10K  192K  900  420K  1200  15K
  120K  2250  3800  720  2K  72800  510  90K  800  90  254  120K  100K  3K  15K  192K  120  45K  260K  600  210K  1100  60  200
--------------------------------------------------+--------------------------------------------------------------------------------
Descriptive interpretation of input data cards.   |  Input data card images are shown below, all 80 columns, character by character
                                                  0         1         2         3         4         5         6         7         8
                                                  012345678901234567890123456789012345678901234567890123456789012345678901234567890
--------------------------------------------------+--------------------------------------------------------------------------------
Comment card.   NUMDCD = 1.                       |C data:D:\ATP\BDFINALISIMA\ENERGIZACION676.ATP
Marker card preceding new EMTP data case.         |BEGIN NEW DATA CASE
Comment card.   NUMDCD = 3.                       |C --------------------------------------------------------
Comment card.   NUMDCD = 4.                       |C Generated by ATPDRAW  febrero, lunes 28, 2022
Comment card.   NUMDCD = 5.                       |C A Bonneville Power Administration program
Comment card.   NUMDCD = 6.                       |C by H. K. Høidalen at SEfAS/NTNU - NORWAY 1994-2016
Comment card.   NUMDCD = 7.                       |C --------------------------------------------------------
Comment card.   NUMDCD = 8.                       |C  dT  >< Tmax >< Xopt >< Copt ><Epsiln>
Misc. data.     1.000E-06   1.200E-01   5.000E+01 |   1.E-6     .12     50.
Misc. data.    500    1  0  1  1  0  0  0  0  0   |     500       1       0       1       1       0       0       0       0
  ///  Warning.  Nonzero XOPT or COPT differs from the power frequency of  6.00000000E+01  Hz.   Did the user really want this?
No TACS data,  but MODELS data begins (next).     |MODELS
      Another ordinary MODELS data card.          |OUTPUT
      Another ordinary MODELS data card.          |  AnVol
      Another ordinary MODELS data card.          |  LONG
      Another ordinary MODELS data card.          |  R0F
      Another ordinary MODELS data card.          |  R1F
      Another ordinary MODELS data card.          |  X0F
      Another ordinary MODELS data card.          |  X1F
      Another ordinary MODELS data card.          |  RDIVX
      Another ordinary MODELS data card.          |  RINSER
      Another ordinary MODELS data card.          |  CLOSE1
      Another ordinary MODELS data card.          |  RPpos
      Another ordinary MODELS data card.          |  RPcero
      Another ordinary MODELS data card.          |  LPpos
      Another ordinary MODELS data card.          |  LPcero
      Another ordinary MODELS data card.          |  CPpos
      Another ordinary MODELS data card.          |  CPcero
      Another ordinary MODELS data card.          |  Xp
      Another ordinary MODELS data card.          |  CR
      Another ordinary MODELS data card.          |  SIMET
      Another ordinary MODELS data card.          |  ENC1
      Another ordinary MODELS data card.          |  ENC2
      Another ordinary MODELS data card.          |  ENC1AS
      Another ordinary MODELS data card.          |  ENC2AS
      Another ordinary MODELS data card.          |MODEL DEFAULT
      Another ordinary MODELS data card.          |DATA AnVol,LONG,R0F,R1F,X0F,X1F,RDIVX,RINSER,CLOSE1,RPpos,RPcero,LPpos,LPcero
      Another ordinary MODELS data card.          |OUTPUT o1,o2,o3, o4, o5, o6, o7, o8, o9, o10, o11, o12, o13
      Another ordinary MODELS data card.          |VAR o1,o2,o3, o4, o5, o6, o7, o8, o9, o10, o11, o12, o13
      Another ordinary MODELS data card.          |INIT
      Another ordinary MODELS data card.          |  o1:=AnVol
      Another ordinary MODELS data card.          |  o2:=LONG
      Another ordinary MODELS data card.          |  o3:=R0F
      Another ordinary MODELS data card.          |  o4:=R1F
      Another ordinary MODELS data card.          |  o5:=X0F
      Another ordinary MODELS data card.          |  O6:=X1F
      Another ordinary MODELS data card.          |  o7:=RDIVX
      Another ordinary MODELS data card.          |  o8:=RINSER
      Another ordinary MODELS data card.          |  o9:=CLOSE1
      Another ordinary MODELS data card.          |  o10:=RPpos
      Another ordinary MODELS data card.          |  o11:=RPcero
      Another ordinary MODELS data card.          |  o12:=LPpos
      Another ordinary MODELS data card.          |  o13:=LPcero
      Another ordinary MODELS data card.          |
      Another ordinary MODELS data card.          |ENDINIT
      Another ordinary MODELS data card.          |EXEC
      Another ordinary MODELS data card.          |ENDEXEC
      Another ordinary MODELS data card.          |ENDMODEL
      Another ordinary MODELS data card.          |MODEL DEFAULT1
      Another ordinary MODELS data card.          |DATA CPpos,CPcero,Xp,CR,SIMET,ENC1,ENC2,ENC1AS,ENC2AS
      Another ordinary MODELS data card.          |OUTPUT o1, o2, o3, o4, o5, o6, o7, o8, o9
      Another ordinary MODELS data card.          |VAR o1, o2, o3, o4, o5, o6, o7, o8, o9
      Another ordinary MODELS data card.          |INIT
      Another ordinary MODELS data card.          |  o1:=CPpos
      Another ordinary MODELS data card.          |  o2:=CPcero
      Another ordinary MODELS data card.          |  o3:=Xp
      Another ordinary MODELS data card.          |  o4:=CR
      Another ordinary MODELS data card.          |  o5:=SIMET
      Another ordinary MODELS data card.          |  o6:=ENC1
      Another ordinary MODELS data card.          |  o7:=ENC2
      Another ordinary MODELS data card.          |  o8:=ENC1AS
      Another ordinary MODELS data card.          |  o9:=ENC2AS
      Another ordinary MODELS data card.          |
      Another ordinary MODELS data card.          |ENDINIT
      Another ordinary MODELS data card.          |EXEC
      Another ordinary MODELS data card.          |ENDEXEC
      Another ordinary MODELS data card.          |ENDMODEL
      Another ordinary MODELS data card.          |USE DEFAULT AS DEFAULT
      Another ordinary MODELS data card.          |DATA
      Another ordinary MODELS data card.          |  AnVol:=      0.0
      Another ordinary MODELS data card.          |  LONG:= 437.6832
      Another ordinary MODELS data card.          |  R0F:= 1.543876
      Another ordinary MODELS data card.          |  R1F:=  1.62906
      Another ordinary MODELS data card.          |  X0F:= 7.272603
      Another ordinary MODELS data card.          |  X1F:= 7.673876
      Another ordinary MODELS data card.          |  RDIVX:= 0.212287
      Another ordinary MODELS data card.          |  RINSER:=     380.
      Another ordinary MODELS data card.          |  CLOSE1:=  0.04667
      Another ordinary MODELS data card.          |  RPpos:= 0.022378
      Another ordinary MODELS data card.          |  RPcero:= 0.287867
      Another ordinary MODELS data card.          |  LPpos:= 0.223991
      Another ordinary MODELS data card.          |  LPcero:= 1.379144
      Another ordinary MODELS data card.          |OUTPUT
      Another ordinary MODELS data card.          |  AnVol:=o1
      Another ordinary MODELS data card.          |  LONG:=o2
      Another ordinary MODELS data card.          |  R0F:=o3
      Another ordinary MODELS data card.          |  R1F:=o4
      Another ordinary MODELS data card.          |  X0F:=o5
      Another ordinary MODELS data card.          |  X1F:=o6
      Another ordinary MODELS data card.          |  RDIVX:=o7
      Another ordinary MODELS data card.          |  RINSER:=o8
      Another ordinary MODELS data card.          |  CLOSE1:=o9
      Another ordinary MODELS data card.          |  RPpos:=o10
      Another ordinary MODELS data card.          |  RPcero:=o11
      Another ordinary MODELS data card.          |  LPpos:=o12
      Another ordinary MODELS data card.          |  LPcero:=o13
      Another ordinary MODELS data card.          |ENDUSE
      Another ordinary MODELS data card.          |USE DEFAULT1 AS DEF
      Another ordinary MODELS data card.          |DATA
      Another ordinary MODELS data card.          |  CPpos:= 0.015926
      Another ordinary MODELS data card.          |  CPcero:= 0.006143
      Another ordinary MODELS data card.          |  Xp:= 702.5586
      Another ordinary MODELS data card.          |  CR:= 14.05117
      Another ordinary MODELS data card.          |  SIMET:=      0.0
      Another ordinary MODELS data card.          |  ENC1:=      0.0
      Another ordinary MODELS data card.          |  ENC2:=      0.0
      Another ordinary MODELS data card.          |  ENC1AS:=       1.
      Another ordinary MODELS data card.          |  ENC2AS:=      0.0
      Another ordinary MODELS data card.          |OUTPUT
      Another ordinary MODELS data card.          |  CPpos:=o1
      Another ordinary MODELS data card.          |  CPcero:=o2
      Another ordinary MODELS data card.          |  Xp:=o3
      Another ordinary MODELS data card.          |  CR:=o4
      Another ordinary MODELS data card.          |  SIMET:=o5
      Another ordinary MODELS data card.          |  ENC1:=o6
      Another ordinary MODELS data card.          |  ENC2:=o7
      Another ordinary MODELS data card.          |  ENC1AS:=o8
      Another ordinary MODELS data card.          |  ENC2AS:=o9
      Another ordinary MODELS data card.          |ENDUSE
      Another ordinary MODELS data card.          |RECORD
      Another ordinary MODELS data card.          |  DEFAULT.o1 AS AnVOL
      Another ordinary MODELS data card.          |  DEFAULT.o2 AS LONG
      Another ordinary MODELS data card.          |  DEFAULT.o3 AS R0F
      Another ordinary MODELS data card.          |  DEFAULT.o4 AS R1F
      Another ordinary MODELS data card.          |  DEFAULT.o5 AS X0F
      Another ordinary MODELS data card.          |  DEFAULT.o6 AS X1F
      Another ordinary MODELS data card.          |  DEFAULT.o7 AS RDIVX
      Another ordinary MODELS data card.          |  DEFAULT.o8 AS RINSER
      Another ordinary MODELS data card.          |  DEFAULT.o9 AS CLOSE1
      Another ordinary MODELS data card.          |  DEFAULT.o10 AS RPpos
      Another ordinary MODELS data card.          |  DEFAULT.o11 AS RPcero
      Another ordinary MODELS data card.          |  DEFAULT.o12 AS LPpos
      Another ordinary MODELS data card.          |  DEFAULT.o13 AS LPcero
      Another ordinary MODELS data card.          |  DEF.o1 AS CPpos
      Another ordinary MODELS data card.          |  DEF.o2 AS CPcero
      Another ordinary MODELS data card.          |  DEF.o3 AS Xp
      Another ordinary MODELS data card.          |  DEF.o4 AS CR
      Another ordinary MODELS data card.          |  DEF.o5 AS SIMET
      Another ordinary MODELS data card.          |  DEF.o6 AS ENC1
      Another ordinary MODELS data card.          |  DEF.o7 AS ENC2
      Another ordinary MODELS data card.          |  DEF.o8 AS ENC1AS
      Another ordinary MODELS data card.          |  DEF.o9 AS ENC2AS
Termination of data for Laurent Dube`s MODELS.    |ENDMODELS
Comment card.   NUMDCD = 153.                     |C        1         2         3         4         5         6         7         8
Comment card.   NUMDCD = 154.                     |C 345678901234567890123456789012345678901234567890123456789012345678901234567890
Optional blank card follows last of MODELS data.  |BLANK MODELS
Comment card.   NUMDCD = 156.                     |C < n1 >< n2 ><ref1><ref2>< R  >< L  >< C  >
Comment card.   NUMDCD = 157.                     |C < n1 >< n2 ><ref1><ref2>< R  >< A  >< B  ><Leng><><>0
1st of coupled R-L.   1.54390E+00  2.31494E-02    |51IFUENASB1A              1.54397.2726033361
2nd coil. 1.629E+00 2.443E-02 0.000E+00 0.000E+00 |52IFUENBSB1B              1.6291 7.673875897
Zca, Zcc=-2.840E-02-4.258E-04 1.601E+00 2.400E-02 |53IFUENCSB1C
Series R-L-C.   1.000E+09  0.000E+00  0.000E+00   |  SB1A                      1.E9                                               0
Series R-L-C.   1.000E+09  0.000E+00  0.000E+00   |  SB1B                      1.E9                                               0
Series R-L-C.   1.000E+09  0.000E+00  0.000E+00   |  SB1C                      1.E9                                               0
Series R-L-C.   1.405E+01  2.236E+00  0.000E+00   |  RSNSHA                  14.051702.56                                         0
Series R-L-C.   1.405E+01  2.236E+00  0.000E+00   |  RSNSHB                  14.051702.56                                         0
Series R-L-C.   1.405E+01  2.236E+00  0.000E+00   |  RSNSHC                  14.051702.56                                         0
Series R-L-C.   1.000E+09  0.000E+00  0.000E+00   |  RSNNHA                    1.E9                                               0
Series R-L-C.   1.000E+09  0.000E+00  0.000E+00   |  RSNNHB                    1.E9                                               0
Series R-L-C.   1.000E+09  0.000E+00  0.000E+00   |  RSNNHC                    1.E9                                               0
Series R-L-C.   1.000E+09  0.000E+00  0.000E+00   |  SE2A                      1.E9                                               0
Series R-L-C.   1.000E+09  0.000E+00  0.000E+00   |  SE2B                      1.E9                                               0
Series R-L-C.   1.000E+09  0.000E+00  0.000E+00   |  SE2C                      1.E9                                               0
Series R-L-C.   2.500E+02  0.000E+00  3.000E-10   |  X0001B                    250.       .0003                                   0
Series R-L-C.   2.500E+02  0.000E+00  3.000E-10   |  X0002B                    250.       .0003                                   0
Series R-L-C.   1.000E-06  0.000E+00  0.000E+00   |  X0001ALN1A               1.E-6                                               0
Series R-L-C.   1.000E-06  0.000E+00  0.000E+00   |  SB1A  X0002A             1.E-6                                               0
Series R-L-C.   1.000E-06  0.000E+00  0.000E+00   |  X0001BLN1B               1.E-6                                               0
Series R-L-C.   1.000E-06  0.000E+00  0.000E+00   |  SB1B  X0002B             1.E-6                                               0
Series R-L-C.   1.000E-06  0.000E+00  0.000E+00   |  X0001CLN1C               1.E-6                                               0
Series R-L-C.   1.000E-06  0.000E+00  0.000E+00   |  SB1C  X0002C             1.E-6                                               0
Series R-L-C.   3.800E+02  0.000E+00  0.000E+00   |  XX0005X0002A              380.                                               0
Series R-L-C.   3.800E+02  0.000E+00  0.000E+00   |  XX0003X0002B              380.                                               0
Series R-L-C.   3.800E+02  0.000E+00  0.000E+00   |  XX0004X0002C              380.                                               0
Series R-L-C.   2.500E+02  0.000E+00  3.000E-10   |  X0001A                    250.       .0003                                   0
Series R-L-C.   1.000E+06  0.000E+00  0.000E+00   |  X0001AX0002A              1.E6                                               0
Series R-L-C.   1.000E+06  0.000E+00  0.000E+00   |  X0001BX0002B              1.E6                                               0
Series R-L-C.   1.000E+06  0.000E+00  0.000E+00   |  X0001CX0002C              1.E6                                               0
Series R-L-C.   2.500E+02  0.000E+00  3.000E-10   |  X0002C                    250.       .0003                                   0
Series R-L-C.   2.500E+02  0.000E+00  3.000E-10   |  X0002A                    250.       .0003                                   0
Series R-L-C.   2.500E+02  0.000E+00  3.000E-10   |  X0001C                    250.       .0003                                   0
Series R-L-C.   1.250E+02  0.000E+00  6.000E-10   |  X0001AX0002A              125.       .0006                                   0
Series R-L-C.   1.250E+02  0.000E+00  6.000E-10   |  X0001BX0002B              125.       .0006                                   0
Series R-L-C.   1.250E+02  0.000E+00  6.000E-10   |  X0001CX0002C              125.       .0006                                   0
 2.879E-01 1.379E+00 6.140E-03 8.455E+02 2.272E-03|-1LN1A  VFF2A             .287871.3791.00614437.68 0 0                         0
 2.238E-02 2.240E-01 1.593E-02 2.116E+02 1.475E-03|-2LN1B  VFF2B             .02238.22399.01593437.68 0 0                         0
3rd or later transposed distributed phase.        |-3LN1C  VFF2C                                                                  0
Blank card ending branches.  IBR, NTOT = 39  31   |BLANK BRANCH
Comment card.   NUMDCD = 198.                     |C < n 1>< n 2>< Tclose ><Top/Tde ><   Ie   ><Vf/CLOP ><  type  >
Switch.  -1.00E+00  1.00E+01  0.00E+00  0.00E+00  |  LN1A  COMPA        -1.       10.                                             0
Switch.  -1.00E+00  1.00E+01  0.00E+00  0.00E+00  |  LN1B  COMPB        -1.       10.                                             0
Switch.  -1.00E+00  1.00E+01  0.00E+00  0.00E+00  |  LN1C  COMPC        -1.       10.                                             0
Switch.  -1.00E+00  1.00E+01  0.00E+00  0.00E+00  |  VFF2A RSNNHA       -1.       10.                                             0
Switch.  -1.00E+00  1.00E+01  0.00E+00  0.00E+00  |  VFF2B RSNNHB       -1.       10.                                             0
Switch.  -1.00E+00  1.00E+01  0.00E+00  0.00E+00  |  VFF2C RSNNHC       -1.       10.                                             0
Switch.   2.00E+00 -1.00E+00  0.00E+00  0.00E+00  |  VFF2A SE2A          2.       -1.                                             0
Switch.   2.00E+00 -1.00E+00  0.00E+00  0.00E+00  |  VFF2B SE2B          2.       -1.                                             0
Switch.   2.00E+00 -1.00E+00  0.00E+00  0.00E+00  |  VFF2C SE2C          2.       -1.                                             0
Switch.   4.67E-02  1.00E+03  0.00E+00  0.00E+00  |  X0001BXX0003.046669753      1.E3                                             0
Switch.   4.67E-02  1.00E+03  0.00E+00  0.00E+00  |  X0001CXX0004.046669753      1.E3                                             0
Switch.   5.42E-02  1.00E+03  0.00E+00  0.00E+00  |  XX0005X0002A.054169753      1.E3                                             0
Switch.   5.42E-02  1.00E+03  0.00E+00  0.00E+00  |  XX0003X0002B.054169753      1.E3                                             0
Switch.   5.42E-02  1.00E+03  0.00E+00  0.00E+00  |  XX0004X0002C.054169753      1.E3                                             0
Switch.   4.67E-02  1.00E+03  0.00E+00  0.00E+00  |  X0001AXX0005.046669753      1.E3                                             0
Permanently-closed switch used for metering.      |  VFUENAIFUENA                                        MEASURING                1
Permanently-closed switch used for metering.      |  VFUENBIFUENB                                        MEASURING                1
Permanently-closed switch used for metering.      |  VFUENCIFUENC                                        MEASURING                1
Permanently-closed switch used for metering.      |  COMPA RSNSHA                                        MEASURING                1
Permanently-closed switch used for metering.      |  COMPB RSNSHB                                        MEASURING                1
Permanently-closed switch used for metering.      |  COMPC RSNSHC                                        MEASURING                1
Blank card ending switches.   KSWTCH = 21.        |BLANK SWITCH
Comment card.   NUMDCD = 221.                     |C < n 1><>< Ampl.  >< Freq.  ><Phase/T0><   A1   ><   T1   >< TSTART >< TSTOP  >
Source.   4.29E+05  5.00E+01  0.00E+00 -1.00E+00  |14VFUENA  428660.705       50.                                     -1.      100.
Source.   4.29E+05  5.00E+01 -1.20E+02 -1.00E+00  |14VFUENB  428660.705       50.     -120.                           -1.      100.
Source.   4.29E+05  5.00E+01 -2.40E+02 -1.00E+00  |14VFUENC  428660.705       50.     -240.                           -1.      100.
Blank card ends electric sources.  KCONST = 3     |BLANK SOURCE
Pi-equivalent branches of distributed circuits are added to the table of List Size 3 between indices  40   and  45.

Sinusoidal steady-state phasor solution, branch by branch.   All flows are away from a bus,  and the real part,  magnitude,  or  "P"
is printed above the imaginary part,  the angle,  or  "Q".   The first solution frequency  =  5.00000000E+01  Hertz.
  Bus K                        Phasor  node  voltage              Phasor  branch  current               Power flow       Power loss
             Bus M         Rectangular            Polar          Rectangular            Polar            P  and  Q        P  and  Q

 IFUENA                    428660.705       428660.705      .42889982194844  .44581190062639      91926.250025395  .16189038764001
                                  0.0              0.0      .12162727273403       15.8322587       -26068.4162387        0.7625847

            SB1A       428660.9396319   428660.9396461      -.4288998219484  .44581190062639      -91926.08813501
                      -3.489466995891       -0.0004664       -.121627272734     -164.1677413      26069.178823404

 IFUENB                  -214330.3525       428660.705      -.1091176029879  .44581190063372      91926.250026459  .16189038764541
                      -371231.0601341     -120.0000000       -.432251777862     -104.1677413       -26068.4162407        0.7625847

            SB1B       -214333.491783   428660.9396461      .10911760298791  .44581190063372      -91926.08813607
                      -371229.5185978     -120.0004664      .43225177786196       75.8322587      26069.178825409

 IFUENC                  -214330.3525       428660.705      -.3197822189704  .44581190063115      91926.250025362  .16189038764445
                      371231.06013415      120.0000000      .31062450510982      135.8322587      -26068.41624255        0.7625847

            SB1C      -214327.4478489   428660.9396461      .31978221897041  .44581190063115      -91926.08813497
                      371233.00806483      119.9995336      -.3106245051098      -44.1677413       26069.17882726

 SB1A                  428660.9396319   428660.9396461      .42866093963E-3  .42866093965E-3      91.875100589138  91.875100589138
                      -3.489466995891       -0.0004664      -.3489466996E-8       -0.0004664       .598217019E-20        0.0000000

            TERRA                 0.0              0.0      -.4286609396E-3  .42866093965E-3                  0.0
                                  0.0              0.0      .34894669959E-8      179.9995336                  0.0

 SB1B                  -214333.491783   428660.9396461      -.2143334918E-3  .42866093965E-3      91.875100589139  91.875100589139
                      -371229.5185978     -120.0004664      -.3712295186E-3     -120.0004664      -.111369247E-14        0.0000000

            TERRA                 0.0              0.0      .21433349178E-3  .42866093965E-3                  0.0
                                  0.0              0.0       .3712295186E-3       59.9995336                  0.0

 SB1C                 -214327.4478489   428660.9396461      -.2143274478E-3  .42866093965E-3      91.875100589139  91.875100589139
                      371233.00806483      119.9995336      .37123300806E-3      119.9995336      .3087807787E-15        0.0000000

            TERRA                 0.0              0.0      .21432744785E-3  .42866093965E-3                  0.0
                                  0.0              0.0      -.3712330081E-3      -60.0004664                  0.0

 RSNSHA               110.16645492543  463.77888455098      -.6378413932506  .65999510252567      3.0602623826567  3.0602623826567
                      -450.5043906162      -76.2585522      -.1695638299106     -165.1128057      153.01529710051      153.0152971

            TERRA                 0.0              0.0      .63784139325064  .65999510252567                  0.0
                                  0.0              0.0      .16956382991061       14.8871943                  0.0

 RSNSHB               -445.2314742528  463.77888455098      .17207411235975  .65999510252567      3.0602623826567  3.0602623826567
                      129.84524669782      163.7414478      .63716876509562       74.8871943      153.01529710051      153.0152971

            TERRA                 0.0              0.0      -.1720741123597  .65999510252567                  0.0
                                  0.0              0.0      -.6371687650956     -105.1128057                  0.0

 RSNSHC               335.06501932738  463.77888455098      .46576728089089  .65999510252567      3.0602623826567  3.0602623826567
                      320.65914391842       43.7414478       -.467604935185      -45.1128057      153.01529710051      153.0152971

            TERRA                 0.0              0.0      -.4657672808909  .65999510252567                  0.0
                                  0.0              0.0      .46760493518501      134.8871943                  0.0

 RSNNHA               117.31468728524  518.42927662102      .11731468729E-6  .51842927662E-6      .13438445743E-3  .13438445743E-3
                      -504.9813650076      -76.9213300       -.504981365E-6      -76.9213300      -.511197619E-21        0.0000000

            TERRA                 0.0              0.0      -.1173146873E-6  .51842927662E-6                  0.0
                                  0.0              0.0      .50498136501E-6      103.0786700                  0.0

 RSNNHB                -495.984034177  518.42927662102      -.4959840342E-6  .51842927662E-6      .13438445743E-3  .13438445743E-3
                      150.89318307776      163.0786700      .15089318308E-6      163.0786700      -.856959115E-21        0.0000000

            TERRA                 0.0              0.0      .49598403418E-6  .51842927662E-6                  0.0
                                  0.0              0.0      -.1508931831E-6      -16.9213300                  0.0

 RSNNHC               378.66934689172  518.42927662102      .37866934689E-6  .51842927662E-6      .13438445743E-3  .13438445743E-3
                      354.08818192986       43.0786700      .35408818193E-6       43.0786700      -.498955345E-20        0.0000000

            TERRA                 0.0              0.0      -.3786693469E-6  .51842927662E-6                  0.0
                                  0.0              0.0      -.3540881819E-6     -136.9213300                  0.0

 X0001B               -445.2314743967  463.77888457386      -.1223861486E-4  .43710130088E-4      .23882193404E-6  .23882193404E-6
                      129.84524628619      163.7414478      -.4196178951E-4     -106.2599022      -.0101359176856       -0.0101359

            TERRA                 0.0              0.0      .12238614856E-4  .43710130088E-4                  0.0
                                  0.0              0.0      .41961789508E-4       73.7400978                  0.0

 X0002B               -214333.4917829  428660.93964567      .03498708187119  .04040034175494      .20402345173924  .20402345173924
                      -371229.5185974     -120.0004664      -.0202012800598      -30.0018164      -8659.024226935    -8659.0242269

            TERRA                 0.0              0.0      -.0349870818712  .04040034175494                  0.0
                                  0.0              0.0       .0202012800598      149.9981836                  0.0

 X0001A               110.16645535386  463.77888457386       .4284259631504  .43605610628051      5.3048871098823  .95072463912E-7
                       -450.504390535      -76.2585522      .08121651262627       10.7341610      -100.9775563653              0.0

            LN1A      110.16645492543  463.77888455098      -.4284259631504  .43605610628051       -5.30488701481
                      -450.5043906162      -76.2585522      -.0812165126263     -169.2658390      100.97755636535

 SB1A                  428660.9396319   428660.9396461      .42846659198403  .44539512208211      91833.233753193   .9918839794E-7
                      -3.489466995891       -0.0004664      .12162727625054       15.8474637      -26069.17882123        0.0000000

            X0002A    428660.93963147  428660.93964567       -.428466591984  .44539512208211      -91833.23375309
                      -3.489467117518       -0.0004664      -.1216272762505     -164.1525363      26069.178821227

 X0001B               -445.2314743967  463.77888457386      -.1438774006601  .43605609947509       5.304883217832  .95072460944E-7
                      129.84524628619      163.7414478      -.4116360230455     -109.2658369      -100.9775549895              0.0

            LN1B      -445.2314742528  463.77888455098      .14387740066013  .43605609947509       -5.30488312276
                      129.84524669782      163.7414478       .4116360230455       70.7341631      100.97755498954

 SB1B                  -214333.491783   428660.9396461      -.1089065335691  .44536355440838      91827.525803916  .99174343404E-7
                      -371229.5185978     -120.0004664       -.431842636317     -104.1542965       -26064.5100568        0.0000000

            X0002B    -214333.4917829  428660.93964567       .1089065335691  .44536355440838      -91827.52580382
                      -371229.5185974     -120.0004664      .43184263631701       75.8457035      26064.510056796

 X0001C               335.06501904283  463.77888457385      -.2845485482794  .43605608631395      5.3048817963095  .95072455207E-7
                      320.65914424884       43.7414478      .33041948199752      130.7341639      -100.9775520081        0.0000000

            LN1C      335.06501932738  463.77888455098      .28454854827942  .43605608631395      -5.304881701237
                      320.65914391842       43.7414478      -.3304194819975      -49.2658361      100.97755200807

 SB1C                 -214327.4478489   428660.9396461      -.3195600584149  .44538941176814      91832.178344365  .99185861302E-7
                      371233.00806483      119.9995336      .31024683266878      135.8471956      -26068.41494682              0.0

            X0002C    -214327.4478486  428660.93964567      .31956005841494  .44538941176814      -91832.17834427
                      371233.00806452      119.9995336      -.3102468326688      -44.1528044      26068.414946825

 XX0005               428660.93963147  428660.93964567                  0.0              0.0                  0.0              0.0
                      -3.489467117518       -0.0004664                  0.0              0.0                  0.0              0.0

            X0002A    428660.93963147  428660.93964567                  0.0              0.0                  0.0
                      -3.489467117518       -0.0004664                  0.0              0.0                  0.0

 XX0003               -214333.4917829  428660.93964567                  0.0              0.0                  0.0              0.0
                      -371229.5185974     -120.0004664                  0.0              0.0                  0.0              0.0

            X0002B    -214333.4917829  428660.93964567                  0.0              0.0                  0.0
                      -371229.5185974     -120.0004664                  0.0              0.0                  0.0

 XX0004               -214327.4478486  428660.93964567                  0.0              0.0                  0.0              0.0
                      371233.00806452      119.9995336                  0.0              0.0                  0.0              0.0

            X0002C    -214327.4478486  428660.93964567                  0.0              0.0                  0.0
                      371233.00806452      119.9995336                  0.0              0.0                  0.0

 X0001A               110.16645535386  463.77888457386       .4245928313E-4  .43710130088E-4      .23882193404E-6  .23882193404E-6
                       -450.504390535      -76.2585522      .10381943381E-4       13.7400978      -.0101359176856       -0.0101359

            TERRA                 0.0              0.0      -.4245928313E-4  .43710130088E-4                  0.0
                                  0.0              0.0      -.1038194338E-4     -166.2599022                  0.0

 X0001A               110.16645535386  463.77888457386      -.4285507731761  .42855100631335      -23.50526871717  91827.982506094
                       -450.504390535      -76.2585522      -.4470149234E-3     -179.9402356      96.556625466312        0.0000000

            X0002A    428660.93963147  428660.93964567      .42855077317611  .42855100631335      91851.487774811
                      -3.489467117518       -0.0004664      .44701492342E-3        0.0597644      -96.55662546631

 X0001B               -445.2314743967  463.77888457386      .21388826030851  .42855100631335      -23.50526871717  91827.982506094
                      129.84524628619      163.7414478      .37135936384369       60.0597644      96.556625466312        0.0000000

            X0002B    -214333.4917829  428660.93964567      -.2138882603085  .42855100631335      91851.487774811
                      -371229.5185974     -120.0004664      -.3713593638437     -119.9402356      -96.55662546631

 X0001C               335.06501904283  463.77888457385      .21466251286761  .42855100631335      -23.50526871717  91827.982506094
                      320.65914424884       43.7414478      -.3709123489203      -59.9402356      96.556625466311        0.0000000

            X0002C    -214327.4478486  428660.93964567      -.2146625128676  .42855100631335      91851.487774811
                      371233.00806452      119.9995336      .37091234892027      120.0597644      -96.55662546631

 X0002C               -214327.4478486  428660.93964567      -.0349883626563  .04040034175494      .20402345173952  .20402345173952
                      371233.00806452      119.9995336      -.0201990616748     -150.0018164      -8659.024226935    -8659.0242269

            TERRA                 0.0              0.0      .03498836265634  .04040034175494                  0.0
                                  0.0              0.0      .02019906167484       29.9981836                  0.0

 X0002A               428660.93963147  428660.93964567      .12807851538E-5  .04040034175494      .20402345173947  .20402345173947
                      -3.489467117518       -0.0004664      .04040034173464       89.9981836      -8659.024226935    -8659.0242269

            TERRA                 0.0              0.0      -.1280785154E-5  .04040034175494                  0.0
                                  0.0              0.0      -.0404003417346      -90.0018164                  0.0

 X0001C               335.06501904283  463.77888457385      -.3022066827E-4  .43710130088E-4      .23882193404E-6  .23882193404E-6
                      320.65914424884       43.7414478      .31579846127E-4      133.7400978      -.0101359176856       -0.0101359

            TERRA                 0.0              0.0      .30220668274E-4  .43710130088E-4                  0.0
                                  0.0              0.0      -.3157984613E-4      -46.2599022                  0.0

 X0001A               110.16645535386  463.77888457386      .82356995953E-4  .08077996156493      18.200390708652  .40783763690197
                       -450.504390535      -76.2585522      -.0807799195825      -89.9415856      4.4310676079534   -17309.1669045

            X0002A    428660.93963147  428660.93964567      -.8235699595E-4  .08077996156493      -17.79255307175
                      -3.489467117518       -0.0004664      .08077991958251       90.0584144      -17313.59797211

 X0001B               -445.2314743967  463.77888457386      -.0699986409721  .08077996156493      18.200390708652  .40783763690104
                      129.84524628619      163.7414478      .04031863654058      150.0584144      4.4310676079535   -17309.1669045

            X0002B    -214333.4917829  428660.93964567      .06999864097209  .08077996156493      -17.79255307175
                      -371229.5185974     -120.0004664      -.0403186365406      -29.9415856      -17313.59797211

 X0001C               335.06501904283  463.77888457385      .06991628397614  .08077996156493      18.200390708652  .40783763690195
                      320.65914424884       43.7414478      .04046128304193       30.0584144      4.4310676079535   -17309.1669045

            X0002C    -214327.4478486  428660.93964567      -.0699162839761  .08077996156493      -17.79255307175
                      371233.00806452      119.9995336      -.0404612830419     -149.9415856      -17313.59797211

 LN1A                 110.16645492543  463.77888455098      1.0662673532375    1.09536152136      2.2446183082788  2.2444839238213
                      -450.5043906162      -76.2585522       .2507803698379       13.2351193      -253.9928542571     -253.9928543

            VFF2A     117.31468728524  518.42927662102      -.1173146871E-6  .51842927684E-6      -.1343844575E-3
                      -504.9813650076      -76.9213300      .50498136526E-6      103.0786699      -.519569277E-13

 LN1B                 -445.2314742528  463.77888455098      -.3159515055687    1.09536152136      2.2446183082796  2.2444839238222
                      129.84524669782      163.7414478      -1.048804800049     -106.7648807      -253.9928542571     -253.9928543

            VFF2B      -495.984034177  518.42927662102      .49598403423E-6  .51842927671E-6      -.1343844575E-3
                      150.89318307776      163.0786700      -.1508931832E-6      -16.9213301      -.307223745E-13

 LN1C                 335.06501932738  463.77888455098      -.7503158476688    1.09536152136      2.2446183082795  2.2444839238221
                      320.65914391842       43.7414478      .79802443021071      133.2351193      -253.9928542571     -253.9928543

            VFF2C     378.66934689172  518.42927662102       -.378669347E-6  .51842927654E-6      -.1343844574E-3
                      354.08818192986       43.0786700      -.3540881817E-6     -136.9213301      -.619379667E-13
     Total network loss  P-loss  by summing injections =   2.757832634428E+05

Output for steady-state phasor switch currents.
      Node-K    Node-M            I-real            I-imag            I-magn          Degrees        Power            Reactive
      LN1A      COMPA        -6.37841377E-01   -1.69563785E-01    6.59995076E-01    -165.1128    3.06025318E+00    1.53015291E+02
      LN1B      COMPB         1.72074137E-01    6.37168768E-01    6.59995112E-01      74.8872    3.06025709E+00    1.53015299E+02
      LN1C      COMPC         4.65767316E-01   -4.67604951E-01    6.59995138E-01     -45.1128    3.06026577E+00    1.53015305E+02
      VFF2A     RSNNHA        1.17314687E-07   -5.04981365E-07    5.18429277E-07     -76.9213    1.34384458E-04    7.44220997E-14
      VFF2B     RSNNHB       -4.95984034E-07    1.50893183E-07    5.18429277E-07     163.0787    1.34384457E-04    4.66219211E-14
      VFF2C     RSNNHC        3.78669347E-07    3.54088182E-07    5.18429276E-07      43.0787    1.34384457E-04   -2.59136250E-15
      VFF2A     SE2A              Open              Open              Open             Open          Open              Open
      VFF2B     SE2B              Open              Open              Open             Open          Open              Open
      VFF2C     SE2C              Open              Open              Open             Open          Open              Open
      X0001B    XX0003            Open              Open              Open             Open          Open              Open
      X0001C    XX0004            Open              Open              Open             Open          Open              Open
      XX0005    X0002A            Open              Open              Open             Open          Open              Open
      XX0003    X0002B            Open              Open              Open             Open          Open              Open
      XX0004    X0002C            Open              Open              Open             Open          Open              Open
      X0001A    XX0005            Open              Open              Open             Open          Open              Open
      VFUENA    IFUENA        4.28899822E-01    1.21627273E-01    4.45811901E-01      15.8323    9.19262500E+04   -2.60684162E+04
      VFUENB    IFUENB       -1.09117603E-01   -4.32251778E-01    4.45811901E-01    -104.1677    9.19262500E+04   -2.60684162E+04
      VFUENC    IFUENC       -3.19782219E-01    3.10624505E-01    4.45811901E-01     135.8323    9.19262500E+04   -2.60684162E+04
      COMPA     RSNSHA       -6.37841377E-01   -1.69563785E-01    6.59995076E-01    -165.1128    3.06025318E+00    1.53015291E+02
      COMPB     RSNSHB        1.72074137E-01    6.37168768E-01    6.59995112E-01      74.8872    3.06025709E+00    1.53015299E+02
      COMPC     RSNSHC        4.65767316E-01   -4.67604951E-01    6.59995138E-01     -45.1128    3.06026577E+00    1.53015305E+02

Solution at nodes with known voltage.   Nodes that are shorted together by switches are shown as a group of names, with the printed
result applying to the composite group.   The entry "MVA" is  SQRT( P**2 + Q**2 )  in units of power,  while  "P.F."  is the
associated power factor.
              Node                Source  node  voltage             Injected  source  current              Injected  source  power
              name         Rectangular            Polar          Rectangular            Polar            P  and  Q    MVA and P.F.

               VFUENA
              IFUENA       428660.705       428660.705        .428899821949  .44581190062706      91926.250025517  95551.021810094
                                  0.0              0.0      .12162727273449       15.8322587       -26068.4162388        0.9620645

               VFUENB
              IFUENB     -214330.3525       428660.705      -.1091176029896   .4458119006344      91926.250026693  95551.021811666
                      -371231.0601341     -120.0000000      -.4322517778622     -104.1677413      -26068.41624041        0.9620645

               VFUENC
              IFUENC     -214330.3525       428660.705      -.3197822189676  .44581190062813      91926.250024791  95551.021810321
                      371231.06013415      120.0000000      .31062450510836      135.8322587      -26068.41624219        0.9620645

  +++  Node  "COMPC "  has no connected linear branches.  Add (to ground) the conductance  G = 1.00000000E-18  mhos.
  +++  Node  "COMPB "  has no connected linear branches.  Add (to ground) the conductance  G = 1.00000000E-18  mhos.
  +++  Node  "COMPA "  has no connected linear branches.  Add (to ground) the conductance  G = 1.00000000E-18  mhos.
Card of names for time-step loop output.          |  LN1A  LN1B  LN1C  COMPA COMPB COMPC SB1A  SB1B  SB1C  SE2A  SE2B  SE2C  VFF2A
Card of names for time-step loop output.          |  VFF2B VFF2C IFUENAIFUENBIFUENC
Card of names for time-step loop output.          |-5VFF2A VFF2B VFF2B VFF2C VFF2C VFF2A LN1A  LN1B  LN1B  LN1C  LN1C  LN1A
Card of names for time-step loop output.          |-5SB1A  SB1B  SB1B  SB1C  SB1C  SB1A
Blank card ending requests for output variables.  |BLANK OUTPUT

Column headings for the  55   EMTP output variables follow.  These are divided among the 5 possible classes as follows ....
  First  27     output variables are electric-network voltage differences (upper voltage minus lower voltage);
  Next   6     output variables are branch currents (flowing from the upper node to the lower node);
  Next   22     output variables belong to MODELS (with "MODELS" an internally-added upper name of pair).
   Step      Time      LN1A       LN1B       LN1C       COMPA      COMPB      COMPC      SB1A       SB1B       SB1C       SE2A
 

                       SE2B       SE2C       VFF2A      VFF2B      VFF2C      IFUENA     IFUENB     IFUENC     VFF2A      VFF2B
                                                                                                               VFF2B      VFF2C

                       VFF2C      LN1A       LN1B       LN1C       SB1A       SB1B       SB1C       VFUENA     VFUENB     VFUENC
                       VFF2A      LN1B       LN1C       LN1A       SB1B       SB1C       SB1A       IFUENA     IFUENB     IFUENC

                       COMPA      COMPB      COMPC      MODELS     MODELS     MODELS     MODELS     MODELS     MODELS     MODELS
                       RSNSHA     RSNSHB     RSNSHC     ANVOL      LONG       R0F        R1F        X0F        X1F        RDIVX

                       MODELS     MODELS     MODELS     MODELS     MODELS     MODELS     MODELS     MODELS     MODELS     MODELS
                       RINSER     CLOSE1     RPPOS      RPCERO     LPPOS      LPCERO     CPPOS      CPCERO     XP         CR

                       MODELS     MODELS     MODELS     MODELS     MODELS
                       SIMET      ENC1       ENC2       ENC1AS     ENC2AS
 ***      Phasor I(0) = -6.3784138E-01                     Switch  "LN1A  "  to  "COMPA "  closed in the steady-state.
 ***      Phasor I(0) =  1.7207414E-01                     Switch  "LN1B  "  to  "COMPB "  closed in the steady-state.
 ***      Phasor I(0) =  4.6576732E-01                     Switch  "LN1C  "  to  "COMPC "  closed in the steady-state.
 ***      Phasor I(0) =  1.1731469E-07                     Switch  "VFF2A "  to  "RSNNHA"  closed in the steady-state.
 ***      Phasor I(0) = -4.9598403E-07                     Switch  "VFF2B "  to  "RSNNHB"  closed in the steady-state.
 ***      Phasor I(0) =  3.7866935E-07                     Switch  "VFF2C "  to  "RSNNHC"  closed in the steady-state.
 ***      Phasor I(0) =  4.2889982E-01                     Switch  "VFUENA"  to  "IFUENA"  closed in the steady-state.
 ***      Phasor I(0) = -1.0911760E-01                     Switch  "VFUENB"  to  "IFUENB"  closed in the steady-state.
 ***      Phasor I(0) = -3.1978222E-01                     Switch  "VFUENC"  to  "IFUENC"  closed in the steady-state.
 ***      Phasor I(0) = -6.3784138E-01                     Switch  "COMPA "  to  "RSNSHA"  closed in the steady-state.
 ***      Phasor I(0) =  1.7207414E-01                     Switch  "COMPB "  to  "RSNSHB"  closed in the steady-state.
 ***      Phasor I(0) =  4.6576732E-01                     Switch  "COMPC "  to  "RSNSHC"  closed in the steady-state.
      0       0.0  110.166455 -445.23147 335.065019 110.166455 -445.23147 335.065019  428660.94 -214333.49 -214327.45        0.0
                          0.0        0.0 117.314687 -495.98403 378.669347 428660.705 -214330.35 -214330.35 613.298721 -874.65338
                    261.35466 555.397929 -780.29649 224.898564 642994.431 -6.0439341 -642988.39 .428899822  -.1091176 -.31978222
                   -.63784138 .172074137 .465767316        0.0   437.6832   1.543876    1.62906   7.272603   7.673876    .212287
                         380.     .04667    .022378    .287867    .223991   1.379144    .015926    .006143   702.5586   14.05117
                          0.0        0.0        0.0        1.0        0.0
    500     .5E-3  179.284817 -460.06234 280.777524 179.284817 -460.06234 280.777524  423383.95  -153621.6 -269762.35        0.0
                          0.0        0.0 194.866838 -513.48254 318.615703  423383.18 -153618.26 -269764.92 708.349379 -832.09824
                   123.748865 639.347158 -740.83986 101.492707 577005.546 116140.759  -693146.3 .404573939  -.0401486 -.36442534
                   -.60346288 .070280406 .533182478        0.0   437.6832   1.543876    1.62906   7.272603   7.673876    .212287
                         380.     .04667    .022378    .287867    .223991   1.379144    .015926    .006143   702.5586   14.05117
                          0.0        0.0        0.0        1.0        0.0
   1000     .1E-2  243.988047 -463.56468 219.576634 243.988047 -463.56468 219.576634 407681.857 -89127.033 -318554.82        0.0
                          0.0        0.0 267.620721  -518.3374 250.716684 407680.557 -89123.572 -318556.98 785.958126 -769.05409
                   -16.904037 707.552729 -683.14132 -24.411413  496808.89 229427.791 -726236.68 .370303205 .029800453 -.40010366
                    -.5542251 -.03324379 .587468888        0.0   437.6832   1.543876    1.62906   7.272603   7.673876    .212287
                         380.     .04667    .022378    .287867    .223991   1.379144    .015926    .006143   702.5586   14.05117
                          0.0        0.0        0.0        1.0        0.0
   1500     .0015  302.683763 -455.65266 152.968898 302.683763 -455.65266 152.968898 381941.278 -22437.865 -359503.41        0.0
                          0.0        0.0 333.787288 -510.43027 176.642981 381939.485 -22434.368 -359505.12 844.217557 -687.07325
                   -157.14431 758.336423 -608.62156 -149.71486 404379.143 337065.549 -741444.69 .326916183 .099014812   -.425931
                   -.49134044 -.13594944 .627289878        0.0   437.6832   1.543876    1.62906   7.272603   7.673876    .212287
                         380.     .04667    .022378    .287867    .223991   1.379144    .015926    .006143   702.5586   14.05117
                          0.0        0.0        0.0        1.0        0.0
   2000      .002  353.926364 -436.52094 82.5945775 353.926364 -436.52094 82.5945775 346796.036  44803.799 -391599.84        0.0
                          0.0        0.0 391.730106 -489.95225 98.2221466 346793.795 44807.2448 -391601.04 881.682359  -588.1744
                   -293.50796 790.447306 -519.11552 -271.33179 301992.237 436403.634 -738395.87 .275479537  .16579103 -.44127057
                    -.4163574 -.23530755 .651664929        0.0   437.6832   1.543876    1.62906   7.272603   7.673876    .212287
                         380.     .04667    .022378    .287867    .223991   1.379144    .015926    .006143   702.5586   14.05117
                          0.0        0.0        0.0        1.0        0.0
   2500     .0025   396.45415 -406.64064 10.1864919  396.45415 -406.64064 10.1864919 303111.525 110942.245 -414053.77        0.0
                          0.0        0.0   440.0297 -457.41123 17.3815256 303108.891 110945.554 -414054.45 897.440926 -474.79275
                   -422.64817 803.094793 -416.82713 -386.26766  192169.28 524996.014 -717165.29 .217259657 .228484928 -.44574459
                   -.33112224  -.3288716 .659993818        0.0   437.6832   1.543876    1.62906   7.272603   7.673876    .212287
                         380.     .04667    .022378    .287867    .223991   1.379144    .015926    .006143   702.5586   14.05117
                          0.0        0.0        0.0        1.0        0.0
   3000      .003  429.217824 -366.74644 -62.471382 429.217824 -366.74644 -62.471382 251963.414 174348.918 -426312.33        0.0
                          0.0        0.0  477.49428  -413.6072 -63.887075 251960.441 174352.016 -426312.46 891.101485 -349.72013
                   -541.38136 795.964266 -304.27506 -491.68921 77614.4966 600661.249 -678275.75 .153691898 .285551886 -.43924378
                   -.23773374 -.41433772 .652071473        0.0   437.6832   1.543876    1.62906   7.272603   7.673876    .212287
                         380.     .04667    .022378    .287867    .223991   1.379144    .015926    .006143   702.5586   14.05117
                          0.0        0.0        0.0        1.0        0.0
   3500     .0035  451.416897 -317.82382 -133.59308 451.416897 -317.82382 -133.59308 194611.114 233462.549 -428073.66        0.0
                          0.0        0.0 503.201431 -359.61884  -143.5826 194607.888 233465.353 -428073.24 862.820267 -216.03624
                   -646.78403 769.240716 -184.23074 -585.00997 -38851.435 661536.211 -622684.78 .086339995 .335587473 -.42192747
                   -.13849147 -.48960154 .628092947        0.0   437.6832   1.543876    1.62906   7.272603   7.673876    .212287
                         380.     .04667    .022378    .287867    .223991   1.379144    .015926    .006143   702.5586   14.05117
                          0.0        0.0        0.0        1.0        0.0
   4000      .004  462.498499 -261.07428 -201.42422 462.498499 -261.07428 -201.42422 132466.833 286827.562 -419294.39        0.0
                          0.0        0.0 516.518038 -296.77543 -219.74261 132463.443 286829.997 -419293.44 813.293467  -77.03282
                   -736.26065 723.572778 -59.650058 -663.92272 -154360.73 706121.957 -551761.23 .016857426 .377362126 -.39421955
                   -.03583902 -.55280964 .588648718        0.0   437.6832   1.543876    1.62906   7.272603   7.673876    .212287
                         380.     .04667    .022378    .287867    .223991   1.379144    .015926    .006143   702.5586   14.05117
                          0.0        0.0        0.0        1.0        0.0
   4500     .0045  462.191663 -197.89613 -264.29554 462.191663 -197.89613 -264.29554 67060.7905 333129.922 -400190.71        0.0
                          0.0        0.0 517.113266 -226.62292 -290.49035 67057.3081 333131.936 -400189.24 743.736184 63.8674311
                   -807.60361 660.087789   66.39941  -726.4872 -266069.13 733320.636  -467251.5 -.05303814 .409843828 -.35680569
                   .067695857 -.60240581 .534709979        0.0   437.6832   1.543876    1.62906   7.272603   7.673876    .212287
                         380.     .04667    .022378    .287867    .223991   1.379144    .015926    .006143   702.5586   14.05117
                          0.0        0.0        0.0        1.0        0.0
   5000      .005  450.504386 -129.84524 -320.65914 450.504386 -129.84524 -320.65914 3.48907943 371229.519 -371233.01        0.0
                          0.0        0.0 504.981868 -150.89342 -354.08844 -.45661E-7  371231.06 -371231.06 655.875291 203.195021
                   -859.07031 580.349629 190.813902 -771.16353 -371226.03 742462.527  -371236.5 -.12162723 .432233567 -.31060634
                   .169563836 -.63716874 .467604933        0.0   437.6832   1.543876    1.62906   7.272603   7.673876    .212287
                         380.     .04667    .022378    .287867    .223991   1.379144    .015926    .006143   702.5586   14.05117
                          0.0        0.0        0.0        1.0        0.0
   5500     .0055  427.724088 -58.597083 -369.12701 427.724088 -58.597083 -369.12701 -67053.898 400188.212 -333134.31        0.0
                          0.0        0.0 480.412214 -71.446469 -408.96575 -67057.308 400189.244 -333131.94 551.858684 337.519276
                   -889.37796 486.321171 310.529923 -796.85109 -467242.11 733322.526 -266080.42 -.18722127 .443980189 -.25675891
                    .26725657 -.65624245 .388985881        0.0   437.6832   1.543876    1.62906   7.272603   7.673876    .212287
                         380.     .04667    .022378    .287867    .223991   1.379144    .015926    .006143   702.5586   14.05117
                          0.0        0.0        0.0        1.0        0.0
   6000      .006  394.410752 14.0944728 -408.50522 394.410752 14.0944728 -408.50522 -132460.21 419292.953 -286832.74        0.0
                          0.0        0.0 444.013512 9.75958885  -453.7731 -132463.44  419293.44   -286830. 434.253923  463.53269
                   -897.78661 380.316279 422.599697 -802.91598 -551753.17 706125.692 -154372.52 -.24820301 .444793391 -.19659038
                   .358368603  -.6591573 .300788675        0.0   437.6832   1.543876    1.62906   7.272603   7.673876    .212287
                         380.     .04667    .022378    .287867    .223991   1.379144    .015926    .006143   702.5586   14.05117
                          0.0        0.0        0.0        1.0        0.0
   6500     .0065  351.387835 86.4378946 -437.82573 351.387835 86.4378946 -437.82573 -194604.88 428073.291 -233468.41        0.0
                          0.0        0.0 396.681914 90.7252364 -487.40715 -194607.89  428073.24 -233465.35 305.956678 578.132387
                   -884.08907 264.949941 524.263624 -789.21357 -622678.17 661541.699 -38863.526  -.3030776 .434656531 -.13157893
                   .440656416  -.6458415 .205185127        0.0   437.6832   1.543876    1.62906   7.272603   7.673876    .212287
                         380.     .04667    .022378    .287867    .223991   1.379144    .015926    .006143   702.5586   14.05117
                          0.0        0.0        0.0        1.0        0.0
   7000      .007  299.711451 156.653498 -456.36495 299.711451 156.653498 -456.36495 -251957.75 426313.053  -174355.3        0.0
                          0.0        0.0 339.582643 169.456952 -509.03959 -251960.44 426312.457 -174352.02  170.12569 678.496547
                   -848.62224 143.057953 613.018447  -756.0764  -678270.8 600668.354 77602.4503 -.35048673 .413815639 -.06332891
                   .512093751 -.61662294 .104529159        0.0   437.6832   1.543876    1.62906   7.272603   7.673876    .212287
                         380.     .04667    .022378    .287867    .223991   1.379144    .015926    .006143   702.5586   14.05117
                          0.0        0.0        0.0        1.0        0.0
   7500     .0075  240.655262 223.011731 -463.66699 240.655262 223.011731 -463.66699 -303106.59 414055.576 -110948.99        0.0
                          0.0        0.0 274.121879  244.01601 -518.13789 -303108.89 414054.446 -110945.55 30.1058695 762.153898
                   -792.25977 17.6435305 686.678724 -704.32225 -717162.17 525004.561 192157.605  -.3892664 .382785576 .006480824
                   .570921685 -.57222108 .001299395        0.0   437.6832   1.543876    1.62906   7.272603   7.673876    .212287
                         380.     .04667    .022378    .287867    .223991   1.379144    .015926    .006143   702.5586   14.05117
                          0.0        0.0        0.0        1.0        0.0
   8000      .008  175.673281 283.878704 -459.55199 175.673281 283.878704 -459.55199 -346791.93 391602.673  -44810.74        0.0
                          0.0        0.0 201.910702 312.566877 -514.47758  -346793.8  391601.04 -44807.245 -110.65617 827.044456
                   -716.38828 -108.20542 743.430689 -635.22527 -738394.61 436413.413 301981.194 -.41846084 .342329964  .07613088
                   .615691593 -.51372924 -.10196238        0.0   437.6832   1.543876    1.62906   7.272603   7.673876    .212287
                         380.     .04667    .022378    .287867    .223991   1.379144    .015926    .006143   702.5586   14.05117
                          0.0        0.0        0.0        1.0        0.0
   8500     .0085  106.365678 337.755623  -444.1213 106.365678 337.755623  -444.1213 -381938.11 359507.214 22430.8957        0.0
                          0.0        0.0 124.728655 373.420891 -498.14955 -381939.48 359505.117 22434.3679 -248.69224 871.570437
                    -622.8782 -231.38995 781.876925 -550.48698 -741445.32 337076.318 404369.006 -.43735141 .293445062 .143906353
                   .645301159 -.44258765 -.20271348        0.0   437.6832   1.543876    1.62906   7.272603   7.673876    .212287
                         380.     .04667    .022378    .287867    .223991   1.379144    .015926    .006143   702.5586   14.05117
                          0.0        0.0        0.0        1.0        0.0
   9000      .009  34.4386549 383.316063 -417.75472 34.4386549 383.316063 -417.75472 -407679.71 318559.496 89120.2093        0.0
                          0.0        0.0 44.4749343 425.080266  -469.5552 -407680.56 318556.985  89123.572 -380.60533 894.635466
                   -514.03013 -348.87741 801.070782 -452.19337  -726239.2 229439.286 496799.914 -.44547569 .237335944  .20813975
                    .65902126 -.36054813 -.29847312        0.0   437.6832   1.543876    1.62906   7.272603   7.673876    .212287
                         380.     .04667    .022378    .287867    .223991   1.379144    .015926    .006143   702.5586   14.05117
                          0.0        0.0        0.0        1.0        0.0
   9500     .0095  -38.335826 419.437705 -381.10188 -38.335826 419.437705 -381.10188 -423382.87 269767.783 153615.086        0.0
                          0.0        0.0 -36.873866 466.272732 -429.39887 -423383.18 269764.922 153618.258  -503.1466 895.671598
                     -392.525 -457.77353 800.539585 -342.76605 -693150.65 116152.697 576997.955 -.44262398 .175379377 .267244602
                   .656514074  -.2696307 -.38688338        0.0   437.6832   1.543876    1.62906   7.272603   7.673876    .212287
                         380.     .04667    .022378    .287867    .223991   1.379144    .015926    .006143   702.5586   14.05117
                          0.0        0.0        0.0        1.0        0.0
  10000       .01   -110.1664 445.231423 -335.06503  -110.1664 445.231423 -335.06503 -428660.94 214333.492 214327.448        0.0
                          0.0        0.0 -117.31468 495.984003 -378.66932 -428660.71 214330.353 214330.352 -613.29869 874.653323
                   -261.35464 -555.39782 780.296448 -224.89863 -642994.43 6.04365425 642988.388 -.42887874 .109107059 .319771678
                   .637841336 -.17207408 -.46576727        0.0   437.6832   1.543876    1.62906   7.272603   7.673876    .212287
                         380.     .04667    .022378    .287867    .223991   1.379144    .015926    .006143   702.5586   14.05117
                          0.0        0.0        0.0        1.0        0.0
  10500     .0105  -179.28458 460.062204 -280.77762 -179.28458 460.062204 -280.77762 -423383.96 153621.599 269762.358        0.0
                          0.0        0.0  -194.8675 513.482853 -318.61536 -423383.18 153618.258 269764.922 -708.35035 832.098209
                   -123.74786 -639.34678 740.839828 -101.49304 -577005.56 -116140.76 693146.315 -.40457202 .040147638 .364424387
                   .603462824 -.07028038 -.53318244        0.0   437.6832   1.543876    1.62906   7.272603   7.673876    .212287
                         380.     .04667    .022378    .287867    .223991   1.379144    .015926    .006143   702.5586   14.05117
                          0.0        0.0        0.0        1.0        0.0
  11000      .011  -243.98803 463.564648 -219.57662 -243.98803 463.564648 -219.57662 -407681.86 89127.0338 318554.824        0.0
                          0.0        0.0 -267.62069 518.337366 -250.71667 -407680.56  89123.572 318556.985 -785.95806 769.054038
                   16.9040215 -707.55267 683.141271  24.411403 -496808.89 -229427.79 726236.683 -.37030304 -.02980053 .400103578
                   .554225054 .033243799 -.58746885        0.0   437.6832   1.543876    1.62906   7.272603   7.673876    .212287
                         380.     .04667    .022378    .287867    .223991   1.379144    .015926    .006143   702.5586   14.05117
                          0.0        0.0        0.0        1.0        0.0
  11500     .0115  -302.68373 455.652618 -152.96889 -302.68373 455.652618 -152.96889 -381941.28 22437.8646 359503.413        0.0
                          0.0        0.0 -333.78492 510.429063 -176.64415 -381939.48 22434.3679 359505.117 -844.21398  687.07321
                    157.14077 -758.33635 608.621509 149.714836 -404379.14 -337065.55 741444.691 -.32691617 -.09901482  .42593099
                   .491340384 .135949448 -.62728983        0.0   437.6832   1.543876    1.62906   7.272603   7.673876    .212287
                         380.     .04667    .022378    .287867    .223991   1.379144    .015926    .006143   702.5586   14.05117
                          0.0        0.0        0.0        1.0        0.0
  12000      .012  -353.92606 436.520777 -82.594719 -353.92606 436.520777 -82.594719 -346796.03 -44803.801 391599.833        0.0
                          0.0        0.0 -391.73012 489.952245  -98.22212  -346793.8 -44807.245  391601.04 -881.68237 588.174366
                   293.508005 -790.44683 519.115495  271.33134 -301992.23 -436403.63 738395.864 -.27547941 -.16579109 .441270501
                   .416357368 .235307548 -.65166489        0.0   437.6832   1.543876    1.62906   7.272603   7.673876    .212287
                         380.     .04667    .022378    .287867    .223991   1.379144    .015926    .006143   702.5586   14.05117
                          0.0        0.0        0.0        1.0        0.0
  12500     .0125   -396.4543 406.640697 -10.186398  -396.4543 406.640697 -10.186398 -303111.53 -110942.24  414053.77        0.0
                          0.0        0.0 -440.02974 457.411224 -17.381488 -303108.89 -110945.55 414054.446 -897.44096 474.792712
                   422.648249   -803.095 416.827095 386.267901 -192169.28 -524996.01 717165.298 -.21726009 -.22848471 .445744803
                   .331122163 .328871559 -.65999377        0.0   437.6832   1.543876    1.62906   7.272603   7.673876    .212287
                         380.     .04667    .022378    .287867    .223991   1.379144    .015926    .006143   702.5586   14.05117
                          0.0        0.0        0.0        1.0        0.0
  13000      .013  -429.21994 366.747488  62.472451 -429.21994 366.747488  62.472451  -251963.4 -174348.92 426312.325        0.0
                          0.0        0.0 -477.49432 413.607202  63.887113 -251960.44 -174352.02 426312.457 -891.10152 349.720089
                   541.381428 -795.96743 304.275037  491.69239 -77614.477 -600661.25 678275.726 -.15368978 -.28555294 .439242718
                   .237733692 .414337714 -.65207141        0.0   437.6832   1.543876    1.62906   7.272603   7.673876    .212287
                         380.     .04667    .022378    .287867    .223991   1.379144    .015926    .006143   702.5586   14.05117
                          0.0        0.0        0.0        1.0        0.0
  13500     .0135   -451.4167 317.823714 133.592991  -451.4167 317.823714 133.592991  -194611.1 -233462.55 428073.657        0.0
                          0.0        0.0  -503.2002 359.618211 143.581988 -194607.89 -233465.35  428073.24 -862.81841 216.036222
                   646.782187 -769.24042 184.230723 585.009695 38851.4508 -661536.21 622684.761 -.08633614  -.3355894 .421925537
                    .13849141 .489601502 -.62809291        0.0   437.6832   1.543876    1.62906   7.272603   7.673876    .212287
                         380.     .04667    .022378    .287867    .223991   1.379144    .015926    .006143   702.5586   14.05117
                          0.0        0.0        0.0        1.0        0.0
  14000      .014  -462.49842 261.074229 201.424195 -462.49842 261.074229 201.424195 -132466.83 -286827.56 419294.395        0.0
                          0.0        0.0 -516.51831  296.77555 219.742757 -132463.44   -286830.  419293.44 -813.29386  77.032793
                   736.261063 -723.57265 59.6500344 663.922619 154360.728 -706121.96 551761.229 -.01685645 -.37736261 .394219065
                   .035839024 .552809661 -.58864866        0.0   437.6832   1.543876    1.62906   7.272603   7.673876    .212287
                         380.     .04667    .022378    .287867    .223991   1.379144    .015926    .006143   702.5586   14.05117
                          0.0        0.0        0.0        1.0        0.0
  14500     .0145  -462.19172 197.896142 264.295576 -462.19172 197.896142 264.295576 -67060.791 -333129.92 400190.713        0.0
                          0.0        0.0 -517.11621  226.62439 290.491824 -67057.308 -333131.94 400189.244  -743.7406 -63.867434
                   807.608038 -660.08786 -66.399434 726.487294 266069.131 -733320.64 467251.504 .053038432 -.40984397 .356805543
                   -.06769585 .602405793 -.53470995        0.0   437.6832   1.543876    1.62906   7.272603   7.673876    .212287
                         380.     .04667    .022378    .287867    .223991   1.379144    .015926    .006143   702.5586   14.05117
                          0.0        0.0        0.0        1.0        0.0
  % % % % % %   Suspended simulation;  plot data space exhausted;  SPY SPACE is required.   LIMBUF =  840000.
  % % % % % %   Suspended simulation;  plot data space exhausted;  SPY SPACE is required.   LIMBUF =  840000.
  +++  Time-sharing disabled.   Send  user-keyed interrupt to silence alarm.
   Current values.  INDBUF  INDBEG  LIMBUF  MFLUSH  NUMDCD  KCARD1  KCARD2
                    839994      50  840000    1000     230       1     231
Plot timespan now in memory (in sec) = 0.00000000E+00   1.49990000E-02
   ++++  Begin plot-data copy from memory to disk.   MFLUSH, INDBUF, N4, Tbeg,  Tend = 1001  839994       1  -1.00000E+00
1.00000E+19
  15000      .015  -450.50351   129.8448 320.658705 -450.50351   129.8448 320.658705 -3.4862292 -371229.52 371233.006        0.0
                          0.0        0.0 -504.98121 150.893092 354.088119 -.61533E-6 -371231.06  371231.06  -655.8743 -203.19503
                   859.069331  -580.3483 -190.81391  771.16221 371226.034 -742462.53 371236.493 .121626678 -.43223329 .310606612
                   -.16956382 .637168721 -.46760487        0.0   437.6832   1.543876    1.62906   7.272603   7.673876    .212287
                         380.     .04667    .022378    .287867    .223991   1.379144    .015926    .006143   702.5586   14.05117
                          0.0        0.0        0.0        1.0        0.0
  15500     .0155  -427.72414 58.5971056 369.127038 -427.72414 58.5971056 369.127038 67053.8971 -400188.21 333134.315        0.0
                          0.0        0.0  -480.4121 71.4464091 408.965695 67057.3081 -400189.24 333131.936 -551.85851 -337.51929
                   889.377799 -486.32125 -310.52993 796.851182 467242.109 -733322.53 266080.417 .187221345 -.44398022  .25675888
                    -.2672566 .656242417  -.3889858        0.0   437.6832   1.543876    1.62906   7.272603   7.673876    .212287
                         380.     .04667    .022378    .287867    .223991   1.379144    .015926    .006143   702.5586   14.05117
                          0.0        0.0        0.0        1.0        0.0
  16000      .016  -394.41179 -14.093945 408.505736 -394.41179 -14.093945 408.505736 132460.196 -419292.94 286832.748        0.0
                          0.0        0.0 -444.01353 -9.7595835 453.773114 132463.443 -419293.44 286829.997 -434.25395  -463.5327
                   897.786644 -380.31785 -422.59968 802.917527 551753.139 -706125.69 154372.552 .248205214  -.4447945 .196589285
                   -.35836861 .659157257 -.30078863        0.0   437.6832   1.543876    1.62906   7.272603   7.673876    .212287
                         380.     .04667    .022378    .287867    .223991   1.379144    .015926    .006143   702.5586   14.05117
                          0.0        0.0        0.0        1.0        0.0
  16500     .0165  -351.38779  -86.43791 437.825704 -351.38779  -86.43791 437.825704 194604.886 -428073.29 233468.406        0.0
                          0.0        0.0 -396.68193 -90.725225  487.40715 194607.888 -428073.24 233465.353  -305.9567 -578.13238
                   884.089075 -264.94988 -524.26361 789.213498 622678.179  -661541.7 38863.5202 .303077667 -.43465657 .131578898
                    -.4406564 .645841453 -.20518504        0.0   437.6832   1.543876    1.62906   7.272603   7.673876    .212287
                         380.     .04667    .022378    .287867    .223991   1.379144    .015926    .006143   702.5586   14.05117
                          0.0        0.0        0.0        1.0        0.0
  17000      .017  -299.71143 -156.65351 456.364935 -299.71143 -156.65351 456.364935 251957.755 -426313.05 174355.299        0.0
                          0.0        0.0  -339.5825 -169.45702 509.039522 251960.441 -426312.46 174352.016 -170.12548 -678.49654
                   848.622025 -143.05792 -613.01844 756.076363  678270.81 -600668.35 -77602.456 .350487172 -.41381586 .063328689
                   -.51209375 .616622901 -.10452915        0.0   437.6832   1.543876    1.62906   7.272603   7.673876    .212287
                         380.     .04667    .022378    .287867    .223991   1.379144    .015926    .006143   702.5586   14.05117
                          0.0        0.0        0.0        1.0        0.0
  17500     .0175  -240.65522 -223.01175 463.666968 -240.65522 -223.01175 463.666968  303106.59 -414055.58 110948.985        0.0
                          0.0        0.0 -274.12175 -244.01606  518.13781 303108.891 -414054.45 110945.554 -30.105694 -762.15387
                   792.259562 -17.643472 -686.67872 704.322188 717162.165 -525004.56  -192157.6 .389266587 -.38278567 -.00648092
                   -.57092165 .572221042 -.00129936        0.0   437.6832   1.543876    1.62906   7.272603   7.673876    .212287
                         380.     .04667    .022378    .287867    .223991   1.379144    .015926    .006143   702.5586   14.05117
                          0.0        0.0        0.0        1.0        0.0
  18000      .018  -175.67352 -283.87857 459.552092 -175.67352 -283.87857 459.552092 346791.937 -391602.68 44810.7378        0.0
                          0.0        0.0 -201.91102 -312.56671 514.477724 346793.795 -391601.04 44807.2448 110.655688 -827.04443
                   716.388741 108.205047 -743.43066 635.225615 738394.613 -436413.41  -301981.2 .418462188 -.34233063 -.07613155
                   -.61569159 .513729175  .10196239        0.0   437.6832   1.543876    1.62906   7.272603   7.673876    .212287
                         380.     .04667    .022378    .287867    .223991   1.379144    .015926    .006143   702.5586   14.05117
                          0.0        0.0        0.0        1.0        0.0
  18500     .0185  -106.36558 -337.75566 444.121243 -106.36558 -337.75566 444.121243  381938.11 -359507.21 -22430.896        0.0
                          0.0        0.0 -124.72853 -373.42094 498.149474 381939.485 -359505.12 -22434.368 248.692407 -871.57042
                   622.878008 231.390082 -781.87691 550.486823 741445.324 -337076.32 -404369.01 .437350886  -.2934448 -.14390609
                   -.64530113 .442587601 .202713491        0.0   437.6832   1.543876    1.62906   7.272603   7.673876    .212287
                         380.     .04667    .022378    .287867    .223991   1.379144    .015926    .006143   702.5586   14.05117
                          0.0        0.0        0.0        1.0        0.0
  19000      .019  -34.439002 -383.31587 417.754871 -34.439002 -383.31587 417.754871 407679.701 -318559.49 -89120.208        0.0
                          0.0        0.0 -44.474894 -425.08027 469.555168 407680.557 -318556.98 -89123.572 380.605381 -894.63544
                   514.030061 348.876868 -801.07074 452.193872 726239.195 -229439.29 -496799.91 .445472942 -.23733457 -.20813837
                   -.65902123 .360548081 .298473123        0.0   437.6832   1.543876    1.62906   7.272603   7.673876    .212287
                         380.     .04667    .022378    .287867    .223991   1.379144    .015926    .006143   702.5586   14.05117
                          0.0        0.0        0.0        1.0        0.0
  19500     .0195   38.335745 -419.43765 381.101901  38.335745 -419.43765 381.101901 423382.866 -269767.78 -153615.08        0.0
                          0.0        0.0 36.8739417 -466.27275 429.398807  423383.18 -269764.92 -153618.26 503.146691 -895.67156
                   392.524866 457.773391 -800.53955 342.766156 693150.647  -116152.7 -576997.95  .44262549 -.17538013 -.26724536
                   -.65651403 .269630647 .386883379        0.0   437.6832   1.543876    1.62906   7.272603   7.673876    .212287
                         380.     .04667    .022378    .287867    .223991   1.379144    .015926    .006143   702.5586   14.05117
                          0.0        0.0        0.0        1.0        0.0
  20000       .02  110.166471 -445.23144 335.064973 110.166471 -445.23144 335.064973  428660.94 -214333.49 -214327.45        0.0
                          0.0        0.0 117.314692 -495.98399   378.6693 428660.705 -214330.35 -214330.35 613.298684 -874.65329
                   261.354608 555.397916 -780.29642 224.898501 642994.432 -6.0436547 -642988.39 .428878785 -.10910708  -.3197717
                   -.63784129 .172073996 .465767277        0.0   437.6832   1.543876    1.62906   7.272603   7.673876    .212287
                         380.     .04667    .022378    .287867    .223991   1.379144    .015926    .006143   702.5586   14.05117
                          0.0        0.0        0.0        1.0        0.0
  20500     .0205  179.284548 -460.06217 280.777624 179.284548 -460.06217 280.777624 423383.958  -153621.6 -269762.36        0.0
                          0.0        0.0 194.866854  -513.4825  318.61565  423383.18 -153618.26 -269764.92 708.349359 -832.09815
                   123.748796 639.346721  -740.8398 101.493076 577005.557 116140.759 -693146.32 .404571915 -.04014758 -.36442433
                   -.60346276 .070280366 .533182398        0.0   437.6832   1.543876    1.62906   7.272603   7.673876    .212287
                         380.     .04667    .022378    .287867    .223991   1.379144    .015926    .006143   702.5586   14.05117
                          0.0        0.0        0.0        1.0        0.0
  21000      .021  243.988048 -463.56464 219.576589 243.988048 -463.56464 219.576589 407681.853 -89127.031 -318554.82        0.0
                          0.0        0.0 267.620718 -518.33736 250.716637 407680.557 -89123.572 -318556.98 785.958073 -769.05399
                   -16.904081 707.552686 -683.14123 -24.411459 496808.885 229427.791 -726236.68 .370303191 .029800459 -.40010365
                     -.554225 -.03324386 .587468839        0.0   437.6832   1.543876    1.62906   7.272603   7.673876    .212287
[...]
                         380.     .04667    .022378    .287867    .223991   1.379144    .015926    .006143   702.5586   14.05117
                          0.0        0.0        0.0        1.0        0.0
 113000      .113  -252216.65 -195112.16 447328.817 -252216.65 -195112.16 447328.817 -252216.65 -195112.16 447328.817        0.0
                          0.0        0.0 -305491.88 -238556.41 544048.293 -251960.44 -174352.02 426312.457 -66935.472  -782604.7
                   849540.176 -57104.492 -642440.98 699545.471  -57104.49 -642440.98 699545.471 359.683964 -703.01178 343.327818
                   -504.03773 481.961136 22.0765977        0.0   437.6832   1.543876    1.62906   7.272603   7.673876    .212287
                         380.     .04667    .022378    .287867    .223991   1.379144    .015926    .006143   702.5586   14.05117
                          0.0        0.0        0.0        1.0        0.0
 113500     .1135  -197936.12 -238660.08   436596.2 -197936.12 -238660.08   436596.2 -197936.12 -238660.08 436596.201        0.0
                          0.0        0.0 -238336.94 -320030.72 558367.656 -194607.89 -233465.35  428073.24 81693.7836 -878398.38
                   796704.593 40723.9558 -675256.28 634532.322 40723.9583 -675256.28 634532.322 443.491544 -814.92069  371.42915
                   -553.45992 436.318482 117.141433        0.0   437.6832   1.543876    1.62906   7.272603   7.673876    .212287
                         380.     .04667    .022378    .287867    .223991   1.379144    .015926    .006143   702.5586   14.05117
                          0.0        0.0        0.0        1.0        0.0
 114000      .114  -132177.48 -315567.73 447745.202 -132177.48 -315567.73 447745.202 -132177.47 -315567.73 447745.202        0.0
                          0.0        0.0 -152650.68 -394018.43 546669.117 -132463.44   -286830.  419293.44 241367.751 -940687.55
                     699319.8  183390.25 -763312.93 579922.677 183390.253 -763312.93 579922.677 520.936868 -750.07049 229.133622
                   -589.32265  376.33995 212.982702        0.0   437.6832   1.543876    1.62906   7.272603   7.673876    .212287
                         380.     .04667    .022378    .287867    .223991   1.379144    .015926    .006143   702.5586   14.05117
                          0.0        0.0        0.0        1.0        0.0
 114500     .1145  -65750.791 -355215.45 420966.236 -65750.791 -355215.45 420966.236  -65750.79 -355215.45 420966.236        0.0
                          0.0        0.0 -71767.301 -435367.72 507135.026 -67057.308 -333131.94 400189.244 363600.423 -942502.75
                   578902.327 289464.655 -776181.68 486717.027 289464.656 -776181.68 486717.025 484.326449 -217.96856 -266.35788
                   -609.57115 300.189217  309.38189        0.0   437.6832   1.543876    1.62906   7.272603   7.673876    .212287
                         380.     .04667    .022378    .287867    .223991   1.379144    .015926    .006143   702.5586   14.05117
                          0.0        0.0        0.0        1.0        0.0
 115000      .115  -2981.5742 -381182.38 384163.958 -2981.5742 -381182.38 384163.958 -2981.5733 -381182.38 384163.957        0.0
                          0.0        0.0 10293.8926 -496096.07 485802.177 .127058E-4 -371231.06  371231.06 506389.962 -981898.25
                   475508.284 378200.809 -765346.34 387145.532  378200.81 -765346.34  387145.53 467.800607 -65.477302  -402.3233
                   -615.15084  218.86595 396.284899        0.0   437.6832   1.543876    1.62906   7.272603   7.673876    .212287
                         380.     .04667    .022378    .287867    .223991   1.379144    .015926    .006143   702.5586   14.05117
                          0.0        0.0        0.0        1.0        0.0
 115500     .1155  72640.4119 -424951.23 352310.817 72640.4119 -424951.23 352310.817 72640.4127 -424951.23 352310.817        0.0
                          0.0        0.0 100814.996 -548823.09 448008.095 67057.3081 -400189.24 333131.936 649638.086 -996831.19
                   347193.099 497591.641 -777262.05 279670.406 497591.642 -777262.05 279670.404 415.486519 29.2566872 -444.74321
                   -605.31014 130.876164 474.433932        0.0   437.6832   1.543876    1.62906   7.272603   7.673876    .212287
                         380.     .04667    .022378    .287867    .223991   1.379144    .015926    .006143   702.5586   14.05117
                          0.0        0.0        0.0        1.0        0.0
 116000      .116  130861.759  -401410.4 270548.637 130861.759  -401410.4 270548.637  130861.76  -401410.4 270548.636        0.0
                          0.0        0.0 162265.207 -453895.43 291630.223 132463.443 -419293.44 286829.997 616160.636 -745525.65
                   129365.016 532272.155 -671959.03 139686.877 532272.155 -671959.03 139686.876 342.828807 171.170203 -513.99901
                   -580.43721 37.2077342 543.229472        0.0   437.6832   1.543876    1.62906   7.272603   7.673876    .212287
                         380.     .04667    .022378    .287867    .223991   1.379144    .015926    .006143   702.5586   14.05117
                          0.0        0.0        0.0        1.0        0.0
 116500     .1165  195344.889 -435253.16 239908.269 195344.889 -435253.16 239908.269 195344.889 -435253.16 239908.268        0.0
                          0.0        0.0 224921.536 -436048.52 211126.986 194607.888 -428073.24 233465.353 660970.058 -647175.51
                   -13794.549 630598.046 -675161.43 44563.3807 630598.047 -675161.43 44563.3792 295.757681 204.505696 -500.26338
                   -541.63855 -58.085851 599.724404        0.0   437.6832   1.543876    1.62906   7.272603   7.673876    .212287
                         380.     .04667    .022378    .287867    .223991   1.379144    .015926    .006143   702.5586   14.05117
                          0.0        0.0        0.0        1.0        0.0
 117000      .117  256030.625 -432162.41  176131.78 256030.625 -432162.41  176131.78 256030.625  -432162.4 176131.779        0.0
                          0.0        0.0 284542.826 -440350.31  155807.48 251960.441 -426312.46 174352.016 724893.131 -596157.79
                   -128735.35  688193.03 -608294.19 -79898.844 688193.029 -608294.18 -79898.846 211.344586 365.110502 -576.45509
                   -489.16356 -155.31612 644.479712        0.0   437.6832   1.543876    1.62906   7.272603   7.673876    .212287
                         380.     .04667    .022378    .287867    .223991   1.379144    .015926    .006143   702.5586   14.05117
                          0.0        0.0        0.0        1.0        0.0
 117500     .1175   303977.68 -391640.79 87663.1077  303977.68 -391640.79 87663.1077 303977.681 -391640.79 87663.1072        0.0
                          0.0        0.0 326626.175 -379754.41 53128.2398 303108.891 -414054.45 110945.554  706380.59 -432882.65
                   -273497.94 695618.468  -479303.9 -216314.57 695618.468 -479303.89 -216314.57 196.717621 45.0671042 -241.78473
                   -425.45673 -245.40953 670.866184        0.0   437.6832   1.543876    1.62906   7.272603   7.673876    .212287
                         380.     .04667    .022378    .287867    .223991   1.379144    .015926    .006143   702.5586   14.05117
                          0.0        0.0        0.0        1.0        0.0
 118000      .118  346845.976 -377118.68 30272.7061 346845.976 -377118.68 30272.7061 346845.976 -377118.68 30272.7058        0.0
                          0.0        0.0 371625.946 -375082.01 3456.06808 346793.795 -391601.04 44807.2447 746707.961 -378538.08
                   -368169.88 723964.657 -407391.39 -316573.27 723964.658 -407391.39 -316573.27 184.221793 -65.870205 -118.35159
                   -351.36472 -333.52052 684.885226        0.0   437.6832   1.543876    1.62906   7.272603   7.673876    .212287
                         380.     .04667    .022378    .287867    .223991   1.379144    .015926    .006143   702.5586   14.05117
                          0.0        0.0        0.0        1.0        0.0
 118500     .1185  378654.005 -352835.47 -25818.533 378654.005 -352835.47 -25818.533 378654.005 -352835.47 -25818.533        0.0
                          0.0        0.0 401153.077 -315124.36 -86028.717 381939.485 -359505.12 -22434.368 716277.438 -229095.64
                   -487181.79 731489.477 -327016.94 -404472.54 731489.477 -327016.94 -404472.54  161.02484 -49.409491 -111.61535
                   -268.56497 -416.62373 685.188694        0.0   437.6832   1.543876    1.62906   7.272603   7.673876    .212287
                         380.     .04667    .022378    .287867    .223991   1.379144    .015926    .006143   702.5586   14.05117
                          0.0        0.0        0.0        1.0        0.0
 119000      .119  404221.159 -315110.85 -89110.305 404221.159 -315110.85 -89110.305  404221.16 -315110.86 -89110.304        0.0
                          0.0        0.0 426280.983 -318777.78 -107503.21 407680.557 -318556.98 -89123.572 745058.759 -211274.57
                   -533784.19 719332.014 -226000.55 -493331.46 719332.015 -226000.55 -493331.46 185.934777 -220.40092 34.4661385
                   -179.73969 -489.23557 668.975294        0.0   437.6832   1.543876    1.62906   7.272603   7.673876    .212287
                         380.     .04667    .022378    .287867    .223991   1.379144    .015926    .006143   702.5586   14.05117
                          0.0        0.0        0.0        1.0        0.0
 119500     .1195  424408.155 -257669.02 -166739.14 424408.155 -257669.02 -166739.14 424408.155 -257669.02 -166739.14        0.0
                          0.0        0.0 461377.199 -326796.39 -134580.81  423383.18 -269764.92 -153618.26 788173.588 -192215.58
                   -595958.01 682077.173 -90929.881 -591147.29 682077.173  -90929.88 -591147.29 141.259133 -13.324748 -127.93439
                     -85.7937 -555.73361 641.527336        0.0   437.6832   1.543876    1.62906   7.272603   7.673876    .212287
                         380.     .04667    .022378    .287867    .223991   1.379144    .015926    .006143   702.5586   14.05117
                          0.0        0.0        0.0        1.0        0.0
  % % % % % %   Suspended simulation;  plot data space exhausted;  SPY SPACE is required.   LIMBUF =  840000.
  % % % % % %   Suspended simulation;  plot data space exhausted;  SPY SPACE is required.   LIMBUF =  840000.
  +++  Time-sharing disabled.   Send  user-keyed interrupt to silence alarm.
   Current values.  INDBUF  INDBEG  LIMBUF  MFLUSH  NUMDCD  KCARD1  KCARD2
                    839994      50  840000    1007     230       1     231
Plot timespan now in memory (in sec) = 1.04985997E-01   1.19985000E-01
   ++++  Begin plot-data copy from memory to disk.   MFLUSH, INDBUF, N4, Tbeg,  Tend = 1008  839994       1  -1.00000E+00
1.00000E+19
 120000       .12  425978.698 -197847.81 -228130.89 425978.698 -197847.81 -228130.89 425978.699 -197847.81 -228130.89        0.0
                          0.0        0.0 468646.398 -271462.65 -197183.75 428660.705 -214330.35 -214330.35 740109.043 -74278.892
                   -665830.15 623826.507 30283.0806 -654109.59 623826.508 30283.0804 -654109.59 120.482014 -97.627567 -22.854448
                   9.95308049 -607.19009 597.237012        0.0   437.6832   1.543876    1.62906   7.272603   7.673876    .212287
                         380.     .04667    .022378    .287867    .223991   1.379144    .015926    .006143   702.5586   14.05117
                          0.0        0.0        0.0        1.0        0.0

Extrema of output variables follow.   Order and column positioning are the same as for the preceding time-step loop output.
Variable maxima :  441305.045 505459.392 456743.598 441305.045 505459.392 456743.598 441305.044 505459.392 456743.599        0.0
                          0.0        0.0 527249.036 660794.432 568305.105 428660.705 428660.703 428660.703 .1156102E7 .1167543E7
                   896758.957 838853.951 836163.633 760983.546 838853.953 836163.633 760983.546 724.816038 1142.53998 1285.26279
                   615.828719  537.76878 737.100588        0.0   437.6832   1.543876    1.62906   7.272603   7.673876    .212287
                         380.     .04667    .022378    .287867    .223991   1.379144    .015926    .006143   702.5586   14.05117
                          0.0        0.0        0.0        1.0        0.0
Times of maxima :     .060111    .066666       .094    .060111    .066666       .094    .060111    .066666       .094        0.0
                          0.0        0.0      .0587    .067967     .09423        0.0    .006667    .113333    .058651     .06586
                      .071101    .057243    .085579    .091321    .057243    .085579    .091321     .05712    .060182    .067556
                      .084983    .111537    .058235        0.0        0.0        0.0        0.0        0.0        0.0        0.0
                          0.0        0.0        0.0        0.0        0.0        0.0        0.0        0.0        0.0        0.0
                          0.0        0.0        0.0        0.0        0.0
Variable minima :  -438439.53 -549755.61 -474117.85 -438439.53 -549755.61 -474117.85   -479751. -549755.61 -474117.85        0.0
                          0.0        0.0 -498213.18 -702940.64 -572556.54 -428660.71  -428660.7  -428660.7 -.111524E7 -.117074E7
                   -909042.22 -806539.72 -831054.54 -769816.34 -845049.88 -831054.54 -769816.34 -761.50303 -1307.1853 -1229.1359
                   -616.46209 -717.65147 -532.06637        0.0   437.6832   1.543876    1.62906   7.272603   7.673876    .212287
                         380.     .04667    .022378    .287867    .223991   1.379144    .015926    .006143   702.5586   14.05117
                          0.0        0.0        0.0        1.0        0.0
Times of minima :     .070403    .057229    .063179    .070403    .057229    .063179    .049664    .057229    .063179        0.0
                          0.0        0.0    .068941     .05714     .06174        .01    .016667    .103333    .067989    .056086
                      .060371    .088205    .076215     .06038    .049662    .076215     .06038     .04962    .055618    .057808
                      .094938    .061585     .10817        0.0        0.0        0.0        0.0        0.0        0.0        0.0
                          0.0        0.0        0.0        0.0        0.0        0.0        0.0        0.0        0.0        0.0
                          0.0        0.0        0.0        0.0        0.0

Blank card terminating all plot cards.            |BLANK PLOT

Memory storage figures for the preceding, now-completed data case.  -------------------------------  Present   Program
A value of  "-9999"  indicates that no figure is available.         28-Feb-22  19:19:52              figure     limit  (name)
     Size List 1.   Number of electric network nodes.                                                   37      6000  (LBUS)
     Size List 2.   Number of electric network branches.                                                39     10000  (LBRNCH)
     Size List 3.   Number of data values in R, L, C tables.                                            45    192000  (LDATA)
     Size List 4.   Number of electric network sources.                                                  3       900  (LEXCT)
     Size List 5.   Storage for [Y] and triangularized [Y].   No. times =    3     Factors =    66     189    420000  (LYMAT)
     Size List 6.   Number of entries in switch table.                  No. flops = 18                  21      1200  (LSWTCH)
     Size List 7.   Number of distinct ALPHANUMERIC data names plus program SPY variables.              25     15000  (LSIZE7)
     Size List 8.   History points of distributed lines.                                              5228    120000  (LPAST)
     Size List 9.   Number of nonlinear elements.                                                        0      2250  (LNONL)
     Size List 10.  Points of nonlinear characteristics.                                                 0      3800  (LCHAR)
     Size List 11.  Number of Type-59 S.M. outputs.                                                      0       720  (LSMOUT)
     Size List 12.  Total number of EMTP output variables.                                              55      2000  (LSIZ12)
     Size List 13.  Working space for batch/SPY plotting.                                            -9999     72800  (LSIZ13)
     Size List 14.  S.M./U.M. connections to TACS.                                                   -9999       510  (LBSTAC)
     Size List 15.  Character storage in bytes for MODELS.                                            3297     90000  (LCTACS)
     Size List 16.  Total number of Type-59 S.M. masses.                                                 0       800  (LIMASS)
     Size List 17.  Number of Type-59 Synchronous machines.                                              0        90  (LSYN)
     Size List 18.  Branch and switch power/energy outputs.                                              0       254  (MAXPE)
     Size List 19.  Total floating-point TACS table space.                                              23    120000  (LTACST)
     Size List 20.  Non-copied recursive convolution data.                                               0    100000  (LFSEM)
     Size List 21.  Total modal/phase [T] matrix storage.                                                9      3000  (LFD)
     Size List 22.  Total recursive convolution history.                                                 0     15000  (LHIST)
     Size List 23.  Giant vectors for renumbering, phasors;  also extrema accumulation.                  93    192000  (LSIZ23)
     Size List 24.  Peak phases of compensation for data.                                                0       120  (LCOMP)
     Size List 25.  Total table space for all U.M usage.                                             -9999     45000  (LSPCUM)
     Size List 26.  Square of max number of coupled phases.                                              9    260000  (LSIZ26)
     Size List 27.  Maximum number of MODELS top variables.                                             44       600  (LSIZ27)
     Size List 28.  MODELS.  Total work space is divided into INTEGER and REAL.  1st, REAL:           1780    210000  (LRTACS)
                             Second  and last,  statistics for INTEGER work space.                    6838         0  (LITACS)
     Size List 29.  RAM disk used by "TAPSAV" table saving (limit is "LABCOM" size LTLABL).          -9999       600  (LSIZ29)
     Size List 30.  Taku Noda frequency-dependent circuits.                                              0        19  (LSIZ30)
Timing figures characterizing central processor (CP) solution speed.  ----------------------------   CP sec  Wait sec  Real sec
     Data input time (through blank card ending branches) ....                                       0.063     0.000     0.063
     Node renumbering and phasor solution  ....                                                      0.031     0.000     0.031
     After phasor solution, but before time-step loop  ....                                          0.000     0.000     0.000
     Integration of equations (time-step loop)  ....                                                 1.219     0.000     1.219
     Plotting or STATISTICS termination overlays ....                                                0.000     0.000     0.000
                                                                                                    ---------------------------
                                                                                          Totals      1.313     0.000     1.313

