   ---   236   cards of disk file read into card cache cells  1   onward.
 Comment card is ignored.      |C   LBUS  LBRNCH   LDATA   LEXCT   LYMAT  LSWTCH
 Limit CIDEAL cards =   200    |CARDS        200 { Limit of CIDEAL will be 2 mor
 1st card (Lists  1-10).       |    6000   10000  192000     900  420000    120
 Comment card is ignored.      |C LSMOUT  LSIZ12  LSIZ13  LBSTAC  LCTACS  LIMASS
 2nd card (Lists 11-20).       |     720    2000   72800     510   90000     80
 Comment card is ignored.      |C    LFD   LHIST  LSIZ23   NCOMP  LSPCUM  LSIZ26
 3rd card (Lists 21-30).       |    3000   15000  192000     120   45000  26000
 4th card (Lists 31-32).       |     200     300     { Optional card for Lists
 Comment card is ignored.      |C  LWORK  LMARTI
 Supplemental offsets.         |  840000     742
 <===> Done with  "/"-card sorting by data class.    Remember that the source file appears different from interpreted input data.
Alternative Transients Program (ATP),  GNU Linux or DOS.  All rights reserved by Can/Am user group of Portland, Oregon, USA.
 Date (dd-mth-yy) and time of day (hh.mm.ss) = 28-Feb-22  20:59:18   Name of disk plot file is  p\bdfinalisima\energizacion4088.pl4
Consult the 860-page ATP Rule Book of the Can/Am EMTP User Group in Portland,  Oregon, USA.  Source code date is 12 August 2008.
Total size of LABCOM tables = 10913436 INTEGER words.  31 VARDIM  List Sizes follow:  6002  10K  192K  900  420K  1200  15K
  120K  2250  3800  720  2K  72800  510  90K  800  90  254  120K  100K  3K  15K  192K  120  45K  260K  600  210K  1100  60  200
--------------------------------------------------+--------------------------------------------------------------------------------
Descriptive interpretation of input data cards.   |  Input data card images are shown below, all 80 columns, character by character
                                                  0         1         2         3         4         5         6         7         8
                                                  012345678901234567890123456789012345678901234567890123456789012345678901234567890
--------------------------------------------------+--------------------------------------------------------------------------------
Comment card.   NUMDCD = 1.                       |C data:D:\ATP\BDFINALISIMA\ENERGIZACION4088.ATP
Marker card preceding new EMTP data case.         |BEGIN NEW DATA CASE
Comment card.   NUMDCD = 3.                       |C --------------------------------------------------------
Comment card.   NUMDCD = 4.                       |C Generated by ATPDRAW  febrero, lunes 28, 2022
Comment card.   NUMDCD = 5.                       |C A Bonneville Power Administration program
Comment card.   NUMDCD = 6.                       |C by H. K. Høidalen at SEfAS/NTNU - NORWAY 1994-2016
Comment card.   NUMDCD = 7.                       |C --------------------------------------------------------
Comment card.   NUMDCD = 8.                       |C  dT  >< Tmax >< Xopt >< Copt ><Epsiln>
Misc. data.     1.000E-06   1.200E-01   5.000E+01 |   1.E-6     .12     50.
Misc. data.    500    1  0  1  1  0  0  0  0  0   |     500       1       0       1       1       0       0       0       0
  ///  Warning.  Nonzero XOPT or COPT differs from the power frequency of  6.00000000E+01  Hz.   Did the user really want this?
No TACS data,  but MODELS data begins (next).     |MODELS
      Another ordinary MODELS data card.          |OUTPUT
      Another ordinary MODELS data card.          |  AnVol
      Another ordinary MODELS data card.          |  LONG
      Another ordinary MODELS data card.          |  R0F
      Another ordinary MODELS data card.          |  R1F
      Another ordinary MODELS data card.          |  X0F
      Another ordinary MODELS data card.          |  X1F
      Another ordinary MODELS data card.          |  RDIVX
      Another ordinary MODELS data card.          |  RINSER
      Another ordinary MODELS data card.          |  CLOSE1
      Another ordinary MODELS data card.          |  RPpos
      Another ordinary MODELS data card.          |  RPcero
      Another ordinary MODELS data card.          |  LPpos
      Another ordinary MODELS data card.          |  LPcero
      Another ordinary MODELS data card.          |  CPpos
      Another ordinary MODELS data card.          |  CPcero
      Another ordinary MODELS data card.          |  Xp
      Another ordinary MODELS data card.          |  CR
      Another ordinary MODELS data card.          |  SIMET
      Another ordinary MODELS data card.          |  ENC1
      Another ordinary MODELS data card.          |  ENC2
      Another ordinary MODELS data card.          |  ENC1AS
      Another ordinary MODELS data card.          |  ENC2AS
      Another ordinary MODELS data card.          |MODEL DEFAULT
      Another ordinary MODELS data card.          |DATA AnVol,LONG,R0F,R1F,X0F,X1F,RDIVX,RINSER,CLOSE1,RPpos,RPcero,LPpos,LPcero
      Another ordinary MODELS data card.          |OUTPUT o1,o2,o3, o4, o5, o6, o7, o8, o9, o10, o11, o12, o13
      Another ordinary MODELS data card.          |VAR o1,o2,o3, o4, o5, o6, o7, o8, o9, o10, o11, o12, o13
      Another ordinary MODELS data card.          |INIT
      Another ordinary MODELS data card.          |  o1:=AnVol
      Another ordinary MODELS data card.          |  o2:=LONG
      Another ordinary MODELS data card.          |  o3:=R0F
      Another ordinary MODELS data card.          |  o4:=R1F
      Another ordinary MODELS data card.          |  o5:=X0F
      Another ordinary MODELS data card.          |  O6:=X1F
      Another ordinary MODELS data card.          |  o7:=RDIVX
      Another ordinary MODELS data card.          |  o8:=RINSER
      Another ordinary MODELS data card.          |  o9:=CLOSE1
      Another ordinary MODELS data card.          |  o10:=RPpos
      Another ordinary MODELS data card.          |  o11:=RPcero
      Another ordinary MODELS data card.          |  o12:=LPpos
      Another ordinary MODELS data card.          |  o13:=LPcero
      Another ordinary MODELS data card.          |
      Another ordinary MODELS data card.          |ENDINIT
      Another ordinary MODELS data card.          |EXEC
      Another ordinary MODELS data card.          |ENDEXEC
      Another ordinary MODELS data card.          |ENDMODEL
      Another ordinary MODELS data card.          |MODEL DEFAULT1
      Another ordinary MODELS data card.          |DATA CPpos,CPcero,Xp,CR,SIMET,ENC1,ENC2,ENC1AS,ENC2AS
      Another ordinary MODELS data card.          |OUTPUT o1, o2, o3, o4, o5, o6, o7, o8, o9
      Another ordinary MODELS data card.          |VAR o1, o2, o3, o4, o5, o6, o7, o8, o9
      Another ordinary MODELS data card.          |INIT
      Another ordinary MODELS data card.          |  o1:=CPpos
      Another ordinary MODELS data card.          |  o2:=CPcero
      Another ordinary MODELS data card.          |  o3:=Xp
      Another ordinary MODELS data card.          |  o4:=CR
      Another ordinary MODELS data card.          |  o5:=SIMET
      Another ordinary MODELS data card.          |  o6:=ENC1
      Another ordinary MODELS data card.          |  o7:=ENC2
      Another ordinary MODELS data card.          |  o8:=ENC1AS
      Another ordinary MODELS data card.          |  o9:=ENC2AS
      Another ordinary MODELS data card.          |
      Another ordinary MODELS data card.          |ENDINIT
      Another ordinary MODELS data card.          |EXEC
      Another ordinary MODELS data card.          |ENDEXEC
      Another ordinary MODELS data card.          |ENDMODEL
      Another ordinary MODELS data card.          |USE DEFAULT AS DEFAULT
      Another ordinary MODELS data card.          |DATA
      Another ordinary MODELS data card.          |  AnVol:=      0.0
      Another ordinary MODELS data card.          |  LONG:= 345.4895
      Another ordinary MODELS data card.          |  R0F:= 2.281647
      Another ordinary MODELS data card.          |  R1F:= 2.328294
      Another ordinary MODELS data card.          |  X0F:= 9.243012
      Another ordinary MODELS data card.          |  X1F:= 9.431983
      Another ordinary MODELS data card.          |  RDIVX:= 0.246851
      Another ordinary MODELS data card.          |  RINSER:=    1.E-6
      Another ordinary MODELS data card.          |  CLOSE1:=  0.04662
      Another ordinary MODELS data card.          |  RPpos:= 0.030719
      Another ordinary MODELS data card.          |  RPcero:= 0.270463
      Another ordinary MODELS data card.          |  LPpos:= 0.342128
      Another ordinary MODELS data card.          |  LPcero:= 1.401308
      Another ordinary MODELS data card.          |OUTPUT
      Another ordinary MODELS data card.          |  AnVol:=o1
      Another ordinary MODELS data card.          |  LONG:=o2
      Another ordinary MODELS data card.          |  R0F:=o3
      Another ordinary MODELS data card.          |  R1F:=o4
      Another ordinary MODELS data card.          |  X0F:=o5
      Another ordinary MODELS data card.          |  X1F:=o6
      Another ordinary MODELS data card.          |  RDIVX:=o7
      Another ordinary MODELS data card.          |  RINSER:=o8
      Another ordinary MODELS data card.          |  CLOSE1:=o9
      Another ordinary MODELS data card.          |  RPpos:=o10
      Another ordinary MODELS data card.          |  RPcero:=o11
      Another ordinary MODELS data card.          |  LPpos:=o12
      Another ordinary MODELS data card.          |  LPcero:=o13
      Another ordinary MODELS data card.          |ENDUSE
      Another ordinary MODELS data card.          |USE DEFAULT1 AS DEF
      Another ordinary MODELS data card.          |DATA
      Another ordinary MODELS data card.          |  CPpos:= 0.014349
      Another ordinary MODELS data card.          |  CPcero:= 0.008801
      Another ordinary MODELS data card.          |  Xp:= 987.8076
      Another ordinary MODELS data card.          |  CR:= 19.75615
      Another ordinary MODELS data card.          |  SIMET:=      0.0
      Another ordinary MODELS data card.          |  ENC1:=      0.0
      Another ordinary MODELS data card.          |  ENC2:=      0.0
      Another ordinary MODELS data card.          |  ENC1AS:=      0.0
      Another ordinary MODELS data card.          |  ENC2AS:=       1.
      Another ordinary MODELS data card.          |OUTPUT
      Another ordinary MODELS data card.          |  CPpos:=o1
      Another ordinary MODELS data card.          |  CPcero:=o2
      Another ordinary MODELS data card.          |  Xp:=o3
      Another ordinary MODELS data card.          |  CR:=o4
      Another ordinary MODELS data card.          |  SIMET:=o5
      Another ordinary MODELS data card.          |  ENC1:=o6
      Another ordinary MODELS data card.          |  ENC2:=o7
      Another ordinary MODELS data card.          |  ENC1AS:=o8
      Another ordinary MODELS data card.          |  ENC2AS:=o9
      Another ordinary MODELS data card.          |ENDUSE
      Another ordinary MODELS data card.          |RECORD
      Another ordinary MODELS data card.          |  DEFAULT.o1 AS AnVOL
      Another ordinary MODELS data card.          |  DEFAULT.o2 AS LONG
      Another ordinary MODELS data card.          |  DEFAULT.o3 AS R0F
      Another ordinary MODELS data card.          |  DEFAULT.o4 AS R1F
      Another ordinary MODELS data card.          |  DEFAULT.o5 AS X0F
      Another ordinary MODELS data card.          |  DEFAULT.o6 AS X1F
      Another ordinary MODELS data card.          |  DEFAULT.o7 AS RDIVX
      Another ordinary MODELS data card.          |  DEFAULT.o8 AS RINSER
      Another ordinary MODELS data card.          |  DEFAULT.o9 AS CLOSE1
      Another ordinary MODELS data card.          |  DEFAULT.o10 AS RPpos
      Another ordinary MODELS data card.          |  DEFAULT.o11 AS RPcero
      Another ordinary MODELS data card.          |  DEFAULT.o12 AS LPpos
      Another ordinary MODELS data card.          |  DEFAULT.o13 AS LPcero
      Another ordinary MODELS data card.          |  DEF.o1 AS CPpos
      Another ordinary MODELS data card.          |  DEF.o2 AS CPcero
      Another ordinary MODELS data card.          |  DEF.o3 AS Xp
      Another ordinary MODELS data card.          |  DEF.o4 AS CR
      Another ordinary MODELS data card.          |  DEF.o5 AS SIMET
      Another ordinary MODELS data card.          |  DEF.o6 AS ENC1
      Another ordinary MODELS data card.          |  DEF.o7 AS ENC2
      Another ordinary MODELS data card.          |  DEF.o8 AS ENC1AS
      Another ordinary MODELS data card.          |  DEF.o9 AS ENC2AS
Termination of data for Laurent Dube`s MODELS.    |ENDMODELS
Comment card.   NUMDCD = 153.                     |C        1         2         3         4         5         6         7         8
Comment card.   NUMDCD = 154.                     |C 345678901234567890123456789012345678901234567890123456789012345678901234567890
Optional blank card follows last of MODELS data.  |BLANK MODELS
Comment card.   NUMDCD = 156.                     |C < n1 >< n2 ><ref1><ref2>< R  >< L  >< C  >
Comment card.   NUMDCD = 157.                     |C < n1 >< n2 ><ref1><ref2>< R  >< A  >< B  ><Leng><><>0
1st of coupled R-L.   2.28160E+00  2.94214E-02    |51IFUENASB1A              2.28169.2430122758
2nd coil. 2.328E+00 3.002E-02 0.000E+00 0.000E+00 |52IFUENBSB1B              2.32839.4319829257
Zca, Zcc=-1.557E-02-2.005E-04 2.313E+00 2.982E-02 |53IFUENCSB1C
Series R-L-C.   1.000E+09  0.000E+00  0.000E+00   |  SB1A                      1.E9                                               0
Series R-L-C.   1.000E+09  0.000E+00  0.000E+00   |  SB1B                      1.E9                                               0
Series R-L-C.   1.000E+09  0.000E+00  0.000E+00   |  SB1C                      1.E9                                               0
Series R-L-C.   1.000E+09  0.000E+00  0.000E+00   |  RSNSHA                    1.E9                                               0
Series R-L-C.   1.000E+09  0.000E+00  0.000E+00   |  RSNSHB                    1.E9                                               0
Series R-L-C.   1.000E+09  0.000E+00  0.000E+00   |  RSNSHC                    1.E9                                               0
Series R-L-C.   1.976E+01  3.144E+00  0.000E+00   |  RSNNHA                  19.756987.81                                         0
Series R-L-C.   1.976E+01  3.144E+00  0.000E+00   |  RSNNHB                  19.756987.81                                         0
Series R-L-C.   1.976E+01  3.144E+00  0.000E+00   |  RSNNHC                  19.756987.81                                         0
Series R-L-C.   1.000E+09  0.000E+00  0.000E+00   |  SE2A                      1.E9                                               0
Series R-L-C.   1.000E+09  0.000E+00  0.000E+00   |  SE2B                      1.E9                                               0
Series R-L-C.   1.000E+09  0.000E+00  0.000E+00   |  SE2C                      1.E9                                               0
Series R-L-C.   2.500E+02  0.000E+00  3.000E-10   |  X0001B                    250.       .0003                                   0
Series R-L-C.   2.500E+02  0.000E+00  3.000E-10   |  X0002B                    250.       .0003                                   0
Series R-L-C.   1.000E-06  0.000E+00  0.000E+00   |  X0001ALN1A               1.E-6                                               0
Series R-L-C.   1.000E-06  0.000E+00  0.000E+00   |  SB1A  X0002A             1.E-6                                               0
Series R-L-C.   1.000E-06  0.000E+00  0.000E+00   |  X0001BLN1B               1.E-6                                               0
Series R-L-C.   1.000E-06  0.000E+00  0.000E+00   |  SB1B  X0002B             1.E-6                                               0
Series R-L-C.   1.000E-06  0.000E+00  0.000E+00   |  X0001CLN1C               1.E-6                                               0
Series R-L-C.   1.000E-06  0.000E+00  0.000E+00   |  SB1C  X0002C             1.E-6                                               0
Series R-L-C.   1.000E-06  0.000E+00  0.000E+00   |  XX0005X0002A             1.E-6                                               0
Series R-L-C.   1.000E-06  0.000E+00  0.000E+00   |  XX0003X0002B             1.E-6                                               0
Series R-L-C.   1.000E-06  0.000E+00  0.000E+00   |  XX0004X0002C             1.E-6                                               0
Series R-L-C.   2.500E+02  0.000E+00  3.000E-10   |  X0001A                    250.       .0003                                   0
Series R-L-C.   1.000E+06  0.000E+00  0.000E+00   |  X0001AX0002A              1.E6                                               0
Series R-L-C.   1.000E+06  0.000E+00  0.000E+00   |  X0001BX0002B              1.E6                                               0
Series R-L-C.   1.000E+06  0.000E+00  0.000E+00   |  X0001CX0002C              1.E6                                               0
Series R-L-C.   2.500E+02  0.000E+00  3.000E-10   |  X0002C                    250.       .0003                                   0
Series R-L-C.   2.500E+02  0.000E+00  3.000E-10   |  X0002A                    250.       .0003                                   0
Series R-L-C.   2.500E+02  0.000E+00  3.000E-10   |  X0001C                    250.       .0003                                   0
Series R-L-C.   1.250E+02  0.000E+00  6.000E-10   |  X0001AX0002A              125.       .0006                                   0
Series R-L-C.   1.250E+02  0.000E+00  6.000E-10   |  X0001BX0002B              125.       .0006                                   0
Series R-L-C.   1.250E+02  0.000E+00  6.000E-10   |  X0001CX0002C              125.       .0006                                   0
 2.705E-01 1.401E+00 8.800E-03 7.119E+02 2.165E-03|-1LN1A  VFF2A             .270461.4013 .0088345.49 0 0                         0
 3.072E-02 3.421E-01 1.435E-02 2.755E+02 1.366E-03|-2LN1B  VFF2B             .03072.34213.01435345.49 0 0                         0
3rd or later transposed distributed phase.        |-3LN1C  VFF2C                                                                  0
Blank card ending branches.  IBR, NTOT = 39  31   |BLANK BRANCH
Comment card.   NUMDCD = 198.                     |C < n 1>< n 2>< Tclose ><Top/Tde ><   Ie   ><Vf/CLOP ><  type  >
Switch.  -1.00E+00  1.00E+01  0.00E+00  0.00E+00  |  LN1A  COMPA        -1.       10.                                             0
Switch.  -1.00E+00  1.00E+01  0.00E+00  0.00E+00  |  LN1B  COMPB        -1.       10.                                             0
Switch.  -1.00E+00  1.00E+01  0.00E+00  0.00E+00  |  LN1C  COMPC        -1.       10.                                             0
Switch.  -1.00E+00  1.00E+01  0.00E+00  0.00E+00  |  VFF2A RSNNHA       -1.       10.                                             0
Switch.  -1.00E+00  1.00E+01  0.00E+00  0.00E+00  |  VFF2B RSNNHB       -1.       10.                                             0
Switch.  -1.00E+00  1.00E+01  0.00E+00  0.00E+00  |  VFF2C RSNNHC       -1.       10.                                             0
Switch.   2.00E+00 -1.00E+00  0.00E+00  0.00E+00  |  VFF2A SE2A          2.       -1.                                             0
Switch.   2.00E+00 -1.00E+00  0.00E+00  0.00E+00  |  VFF2B SE2B          2.       -1.                                             0
Switch.   2.00E+00 -1.00E+00  0.00E+00  0.00E+00  |  VFF2C SE2C          2.       -1.                                             0
Switch.   4.66E-02  1.00E+03  0.00E+00  0.00E+00  |  X0001BXX0003.046620382      1.E3                                             0
Switch.   4.66E-02  1.00E+03  0.00E+00  0.00E+00  |  X0001CXX0004.046620382      1.E3                                             0
Switch.   5.41E-02  1.00E+03  0.00E+00  0.00E+00  |  XX0005X0002A.054120382      1.E3                                             0
Switch.   5.41E-02  1.00E+03  0.00E+00  0.00E+00  |  XX0003X0002B.054120382      1.E3                                             0
Switch.   5.41E-02  1.00E+03  0.00E+00  0.00E+00  |  XX0004X0002C.054120382      1.E3                                             0
Switch.   4.66E-02  1.00E+03  0.00E+00  0.00E+00  |  X0001AXX0005.046620382      1.E3                                             0
Permanently-closed switch used for metering.      |  VFUENAIFUENA                                        MEASURING                1
Permanently-closed switch used for metering.      |  VFUENBIFUENB                                        MEASURING                1
Permanently-closed switch used for metering.      |  VFUENCIFUENC                                        MEASURING                1
Permanently-closed switch used for metering.      |  COMPA RSNSHA                                        MEASURING                1
Permanently-closed switch used for metering.      |  COMPB RSNSHB                                        MEASURING                1
Permanently-closed switch used for metering.      |  COMPC RSNSHC                                        MEASURING                1
Blank card ending switches.   KSWTCH = 21.        |BLANK SWITCH
Comment card.   NUMDCD = 221.                     |C < n 1><>< Ampl.  >< Freq.  ><Phase/T0><   A1   ><   T1   >< TSTART >< TSTOP  >
Source.   4.29E+05  5.00E+01  0.00E+00 -1.00E+00  |14VFUENA  428660.705       50.                                     -1.      100.
Source.   4.29E+05  5.00E+01 -1.20E+02 -1.00E+00  |14VFUENB  428660.705       50.     -120.                           -1.      100.
Source.   4.29E+05  5.00E+01 -2.40E+02 -1.00E+00  |14VFUENC  428660.705       50.     -240.                           -1.      100.
Blank card ends electric sources.  KCONST = 3     |BLANK SOURCE
Pi-equivalent branches of distributed circuits are added to the table of List Size 3 between indices  40   and  45.

Sinusoidal steady-state phasor solution, branch by branch.   All flows are away from a bus,  and the real part,  magnitude,  or  "P"
is printed above the imaginary part,  the angle,  or  "Q".   The first solution frequency  =  5.00000000E+01  Hertz.
  Bus K                        Phasor  node  voltage              Phasor  branch  current               Power flow       Power loss
             Bus M         Rectangular            Polar          Rectangular            Polar            P  and  Q        P  and  Q

 IFUENA                    428660.705       428660.705      .42879068256691  .44578192223012      91902.858143281  .23134166005416
                                  0.0              0.0      .12190189797942       15.8700439      -26127.27676435        0.9371690

            SB1A      428660.85642327  428660.85644512      -.4287906825669  .44578192223012      -91902.62680162
                      -4.328170585736       -0.0005785      -.1219018979794     -164.1299561       26128.21393335

 IFUENB                  -214330.3525       428660.705       -.108825200858   .4457819222327      91902.858143428  .23134166005689
                      -371231.0601341     -120.0000000      -.4322945730028     -104.1299561      -26127.27676585        0.9371690

            SB1B      -214334.1765173  428660.85644512      .10882520085799   .4457819222327      -91902.62680177
                      -371229.0271853     -120.0005785      .43229457300283       75.8700439      26128.213934857

 IFUENC                  -214330.3525       428660.705      -.3199654817083  .44578192223458      91902.858144038  .23134166005887
                      371231.06013415      120.0000000      .31039267502041      135.8700439      -26127.27676518        0.9371690

            SB1C       -214326.679906  428660.85644512      .31996548170831  .44578192223458      -91902.62680238
                      371233.35535584      119.9994215      -.3103926750204      -44.1299561      26128.213934186

 SB1A                 428660.85642327  428660.85644512      .42866085642E-3  .42866085645E-3      91.875064924134  91.875064924134
                      -4.328170585736       -0.0005785      -.4328170586E-8       -0.0005785      .1953469735E-19        0.0000000

            TERRA                 0.0              0.0      -.4286608564E-3  .42866085645E-3                  0.0
                                  0.0              0.0      .43281705857E-8      179.9994215                  0.0

 SB1B                 -214334.1765173  428660.85644512      -.2143341765E-3  .42866085645E-3      91.875064924134  91.875064924134
                      -371229.0271853     -120.0005785      -.3712290272E-3     -120.0005785      -.634908792E-15        0.0000000

            TERRA                 0.0              0.0      .21433417652E-3  .42866085645E-3                  0.0
                                  0.0              0.0      .37122902719E-3       59.9994215                  0.0

 SB1C                  -214326.679906  428660.85644512      -.2143266799E-3  .42866085645E-3      91.875064924134  91.875064924134
                      371233.35535584      119.9994215      .37123335536E-3      119.9994215      -.104430353E-14        0.0000000

            TERRA                 0.0              0.0      .21432667991E-3  .42866085645E-3                  0.0
                                  0.0              0.0      -.3712333554E-3      -60.0005785                  0.0

 RSNSHA               171.01335786798  757.02979118643      .17101335787E-6  .75702979119E-6      .28654705237E-3  .28654705237E-3
                      -737.4608709447      -76.9441675      -.7374608709E-6      -76.9441675      .4771177773E-20        0.0000000

            TERRA                 0.0              0.0      -.1710133579E-6  .75702979119E-6                  0.0
                                  0.0              0.0      .73746087094E-6      103.0558325                  0.0

 RSNSHB               -724.1665274691  757.02979118643      -.7241665275E-6  .75702979119E-6      .28654705237E-3  .28654705237E-3
                      220.62852317219      163.0558325      .22062852317E-6      163.0558325      -.412266817E-20        0.0000000

            TERRA                 0.0              0.0      .72416652747E-6  .75702979119E-6                  0.0
                                  0.0              0.0      -.2206285232E-6      -16.9441675                  0.0

 RSNSHC                553.1531696011  757.02979118643       .5531531696E-6  .75702979119E-6      .28654705237E-3  .28654705237E-3
                      516.83234777249       43.0558325      .51683234777E-6       43.0558325      .1408192275E-19        0.0000000

            TERRA                 0.0              0.0      -.5531531696E-6  .75702979119E-6                  0.0
                                  0.0              0.0      -.5168323478E-6     -136.9441675                  0.0

 RSNNHA               166.52501704422  738.16787678742      -.7243524167273  .74712777808959      5.5138987780821  5.5138987780821
                      -719.1392306218      -76.9622878      -.1830669090099     -165.8165366      275.69772990369      275.6977299

            TERRA                 0.0              0.0      .72435241672728  .74712777808959                  0.0
                                  0.0              0.0      .18306690900992       14.1834634                  0.0

 RSNNHB               -706.0553510986  738.16787678742      .20363561456875  .74712777808959      5.5138987780822  5.5138987780822
                      215.35472018495      163.0377122      .71884104868343       74.1834634      275.69772990369      275.6977299

            TERRA                 0.0              0.0      -.2036356145688  .74712777808959                  0.0
                                  0.0              0.0      -.7188410486834     -105.8165366                  0.0

 RSNNHC               539.53033405434  738.16787678742      .52071680215852  .74712777808959      5.5138987780822  5.5138987780822
                      503.78451043682       43.0377122      -.5357741396735      -45.8165366      275.69772990369      275.6977299

            TERRA                 0.0              0.0      -.5207168021585  .74712777808959                  0.0
                                  0.0              0.0      .53577413967351      134.1834634                  0.0

 X0001B               -724.1665276127   757.0297912038      -.2079535651E-4  .71348376898E-4      .63632386075E-6  .63632386075E-6
                      220.62852276055      163.0558326      -.6825059731E-4     -106.9455174      -.0270064234254       -0.0270064

            TERRA                 0.0              0.0      .20795356505E-4  .71348376898E-4                  0.0
                                  0.0              0.0      .68250597315E-4       73.0544826                  0.0

 X0002B               -214334.1765172   428660.8564447      .03498703555513  .04040033391343      .20402337253972  .20402337253972
                      -371229.0271848     -120.0005785      -.0202013445934      -30.0019285      -8659.020865588    -8659.0208656

            TERRA                 0.0              0.0      -.0349870355551  .04040033391343                  0.0
                                  0.0              0.0      .02020134459339      149.9980715                  0.0

 X0001A               171.01335829626   757.0297912038      .42828406776607  .43596686821538      6.5750079814881  .95033555091E-7
                      -737.4608708632      -76.9441674      .08148538199748       10.7723514      -164.8889152095              0.0

            LN1A      171.01335786798  757.02979118643      -.4282840677661  .43596686821538      -6.575007886455
                      -737.4608709447      -76.9441675      -.0814853819975     -169.2276486      164.88891520952

 SB1A                 428660.85642327  428660.85644512      .42835017666221  .44535822407519      91808.212982426  .99171977297E-7
                      -4.328170585736       -0.0005785      .12190190279426       15.8855417      -26128.21401203        0.0000000

            X0002A    428660.85642285   428660.8564447      -.4283501766622  .44535822407519      -91808.21298233
                      -4.328170707638       -0.0005785      -.1219019027943     -164.1144583      26128.214012025

 X0001B               -724.1665276127   757.0297912038      -.1435736294297  .43596685949948      6.5750115607895  .95033551289E-7
                      220.62852276055      163.0558326      -.4116475622595     -109.2276499      -164.8889117651              0.0

            LN1B      -724.1665274691  757.02979118643      .14357362942974  .43596685949948      -6.575011465756
                      220.62852317219      163.0558325      .41164756225953       70.7723501      164.88891176508

 SB1B                 -214334.1765173  428660.85644512      -.1086154952645  .44534892482233      91807.071442481  .99167827727E-7
                      -371229.0271853     -120.0005785      -.4319008439779     -104.1161589      -26124.94354342        0.0000000

            X0002B    -214334.1765172   428660.8564447      .10861549526453  .44534892482233      -91807.07144238
                      -371229.0271848     -120.0005785      .43190084397793       75.8838411      26124.943543423

 X0001C               553.15316931639   757.0297912038      -.2847104951798   .4359668709585      6.5749837219745  .95033556288E-7
                      516.83234810265       43.0558326      .33016215184034      130.7723598       -164.888917216              0.0

            LN1C       553.1531696011  757.02979118643      .28471049517975   .4359668709585      -6.574983626941
                      516.83234777249       43.0558325      -.3301621518403      -49.2276402      164.88891721601

 SB1C                  -214326.679906  428660.85644512      -.3197346813977  .44535261079296      91807.605446917  .99169469081E-7
                      371233.35535584      119.9994215      .31001400202513      135.8843364      -26125.95341024        0.0000000

            X0002C    -214326.6799056   428660.8564447      .31973468139768  .44535261079296      -91807.60544682
                      371233.35535553      119.9994215      -.3100140020251      -44.1156636      26125.953410243

 XX0005               428660.85642285   428660.8564447                  0.0              0.0                  0.0              0.0
                      -4.328170707638       -0.0005785                  0.0              0.0                  0.0              0.0

            X0002A    428660.85642285   428660.8564447                  0.0              0.0                  0.0
                      -4.328170707638       -0.0005785                  0.0              0.0                  0.0

 XX0003               -214334.1765172   428660.8564447                  0.0              0.0                  0.0              0.0
                      -371229.0271848     -120.0005785                  0.0              0.0                  0.0              0.0

            X0002B    -214334.1765172   428660.8564447                  0.0              0.0                  0.0
                      -371229.0271848     -120.0005785                  0.0              0.0                  0.0

 XX0004               -214326.6799056   428660.8564447                  0.0              0.0                  0.0              0.0
                      371233.35535553      119.9994215                  0.0              0.0                  0.0              0.0

            X0002C    -214326.6799056   428660.8564447                  0.0              0.0                  0.0
                      371233.35535553      119.9994215                  0.0              0.0                  0.0

 X0001A               171.01335829626   757.0297912038      .69504429351E-4  .71348376898E-4      .63632386075E-6  .63632386075E-6
                      -737.4608708632      -76.9441674      .16115991643E-4       13.0544826      -.0270064234254       -0.0270064

            TERRA                 0.0              0.0      -.6950442935E-4  .71348376898E-4                  0.0
                                  0.0              0.0      -.1611599164E-4     -166.9455174                  0.0

 X0001A               171.01335829626   757.0297912038      -.4284898430645  .42849047024763       -36.3684151894  91802.041546519
                      -737.4608708632      -76.9441674      -.7331327002E-3     -179.9019688      158.05993415377        0.0000000

            X0002A    428660.85642285   428660.8564447      .42848984306455  .42849047024763      91838.409961709
                      -4.328170707638       -0.0005785      .73313270016E-3        0.0980312      -158.0599341538

 X0001B               -724.1665276127   757.0297912038      .21361000998959  .42849047024763       -36.3684151894  91802.041546519
                      220.62852276055      163.0558326      .37144965570759       60.0980312      158.05993415377        0.0000000

            X0002B    -214334.1765172   428660.8564447      -.2136100099896  .42849047024763      91838.409961709
                      -371229.0271848     -120.0005785      -.3714496557076     -119.9019688      -158.0599341538

 X0001C               553.15316931639   757.0297912038      .21487983307495  .42849047024763       -36.3684151894  91802.041546519
                      516.83234810265       43.0558326      -.3707165230074      -59.9019688      158.05993415377        0.0000000

            X0002C    -214326.6799056   428660.8564447       -.214879833075  .42849047024763      91838.409961709
                      371233.35535553      119.9994215      .37071652300743      120.0980312      -158.0599341538

 X0002C               -214326.6799056   428660.8564447       -.034988395386  .04040033391343      .20402337253938  .20402337253938
                      371233.35535553      119.9994215      -.0201989892972     -150.0019285      -8659.020865588    -8659.0208656

            TERRA                 0.0              0.0      .03498839538605  .04040033391343                  0.0
                                  0.0              0.0      .02019898929715       29.9980715                  0.0

 X0002A               428660.85642285   428660.8564447      .13598309201E-5  .04040033391343      .20402337253959  .20402337253959
                      -4.328170707638       -0.0005785      .04040033389055       89.9980715      -8659.020865588    -8659.0208656

            TERRA                 0.0              0.0       -.135983092E-5  .04040033391343                  0.0
                                  0.0              0.0      -.0404003338905      -90.0019285                  0.0

 X0001C               553.15316931639   757.0297912038      -.4870907285E-4  .71348376898E-4      .63632386075E-6  .63632386075E-6
                      516.83234810265       43.0558326      .52134605672E-4      133.0544826      -.0270064234254       -0.0270064

            TERRA                 0.0              0.0      .48709072845E-4  .71348376898E-4                  0.0
                                  0.0              0.0      -.5213460567E-4      -46.9455174                  0.0

 X0001A               171.01335829626   757.0297912038      .13628919686E-3  .08076855078537      29.793434137481  .40772242474808
                      -737.4608708632      -76.9441674      -.0807684357978      -89.9033188      6.8559867501561   -17304.2771488

            X0002A    428660.85642285   428660.8564447      -.1362891969E-3  .08076855078537      -29.38571171273
                      -4.328170707638       -0.0005785       .0807684357978       90.0966812      -17311.13313557

 X0001B               -724.1665276127   757.0297912038      -.0700156618233  .08076855078537      29.793434137481  .40772242474823
                      220.62852276055      163.0558326      .04026618799216      150.0966812      6.8559867501561   -17304.2771488

            X0002B    -214334.1765172   428660.8564447      .07001566182326  .08076855078537      -29.38571171273
                      -371229.0271848     -120.0005785      -.0402661879922      -29.9033188      -17311.13313557

 X0001C               553.15316931639   757.0297912038       .0698793726264  .08076855078537      29.793434137481  .40772242474826
                      516.83234810265       43.0558326      .04050224780565       30.0966812      6.8559867501562   -17304.2771488

            X0002C    -214326.6799056   428660.8564447      -.0698793726264  .08076855078537      -29.38571171273
                      371233.35535553      119.9994215      -.0405022478056     -149.9033188      -17311.13313557

 LN1A                 171.01335786798  757.02979118643      .42828387438881   .4359668325153      6.5746870105606  1.0607882324787
                      -737.4608709447      -76.9441675      .08148620737238       10.7724627      -164.8889144805     -440.5866444

            VFF2A     166.52501704422  738.16787678742      .72435241672727  .74712777808959      -5.513898778082
                      -719.1392306218      -76.9622878      .18306690900992       14.1834634      -275.6977299037

 LN1B                 -724.1665274691  757.02979118643      -.1435728115519   .4359668325153      6.5746870105606  1.0607882324785
                      220.62852317219      163.0558325      -.4116478189381     -109.2275373      -164.8889144805     -440.5866444

            VFF2B     -706.0553510986  738.16787678742      -.2036356145688  .74712777808959      -5.513898778082
                      215.35472018495      163.0377122      -.7188410486834     -105.8165366      -275.6977299037

 LN1C                  553.1531696011  757.02979118643      -.2847110628369   .4359668325153      6.5746870105612   1.060788232479
                      516.83234777249       43.0558325      .33016161156574      130.7724627      -164.8889144805     -440.5866444

            VFF2C     539.53033405434  738.16787678742      -.5207168021585  .74712777808959      -5.513898778082
                      503.78451043682       43.0377122      .53577413967351      134.1834634      -275.6977299037
     Total network loss  P-loss  by summing injections =   2.757102226380E+05

Output for steady-state phasor switch currents.
      Node-K    Node-M            I-real            I-imag            I-magn          Degrees        Power            Reactive
      LN1A      COMPA         1.47943428E-07   -8.93313329E-07    9.05481066E-07     -80.5965    3.42041964E-04    2.18330113E-05
      LN1B      COMPB        -7.86389586E-07    2.19285117E-07    8.16391171E-07     164.4188    3.08928784E-04   -7.35051588E-06
      LN1C      COMPC         6.52178272E-07    4.96689910E-07    8.19778852E-07      37.2924    3.08729945E-04    3.11606148E-05
      VFF2A     RSNNHA       -7.24352417E-01   -1.83066909E-01    7.47127778E-01    -165.8165    5.51389878E+00    2.75697730E+02
      VFF2B     RSNNHB        2.03635615E-01    7.18841049E-01    7.47127778E-01      74.1835    5.51389878E+00    2.75697730E+02
      VFF2C     RSNNHC        5.20716802E-01   -5.35774140E-01    7.47127778E-01     -45.8165    5.51389878E+00    2.75697730E+02
      VFF2A     SE2A              Open              Open              Open             Open          Open              Open
      VFF2B     SE2B              Open              Open              Open             Open          Open              Open
      VFF2C     SE2C              Open              Open              Open             Open          Open              Open
      X0001B    XX0003            Open              Open              Open             Open          Open              Open
      X0001C    XX0004            Open              Open              Open             Open          Open              Open
      XX0005    X0002A            Open              Open              Open             Open          Open              Open
      XX0003    X0002B            Open              Open              Open             Open          Open              Open
      XX0004    X0002C            Open              Open              Open             Open          Open              Open
      X0001A    XX0005            Open              Open              Open             Open          Open              Open
      VFUENA    IFUENA        4.28790683E-01    1.21901898E-01    4.45781922E-01      15.8700    9.19028581E+04   -2.61272768E+04
      VFUENB    IFUENB       -1.08825201E-01   -4.32294573E-01    4.45781922E-01    -104.1300    9.19028581E+04   -2.61272768E+04
      VFUENC    IFUENC       -3.19965482E-01    3.10392675E-01    4.45781922E-01     135.8700    9.19028581E+04   -2.61272768E+04
      COMPA     RSNSHA        1.47943428E-07   -8.93313329E-07    9.05481066E-07     -80.5965    3.42041964E-04    2.18330113E-05
      COMPB     RSNSHB       -7.86389586E-07    2.19285117E-07    8.16391171E-07     164.4188    3.08928784E-04   -7.35051588E-06
      COMPC     RSNSHC        6.52178272E-07    4.96689910E-07    8.19778852E-07      37.2924    3.08729945E-04    3.11606148E-05

Solution at nodes with known voltage.   Nodes that are shorted together by switches are shown as a group of names, with the printed
result applying to the composite group.   The entry "MVA" is  SQRT( P**2 + Q**2 )  in units of power,  while  "P.F."  is the
associated power factor.
              Node                Source  node  voltage             Injected  source  current              Injected  source  power
              name         Rectangular            Polar          Rectangular            Polar            P  and  Q    MVA and P.F.

               VFUENA
              IFUENA       428660.705       428660.705      .42879068256773  .44578192223055      91902.858143457  95544.596529802
                                  0.0              0.0      .12190189797811       15.8700439      -26127.27676407        0.9618844

               VFUENB
              IFUENB     -214330.3525       428660.705      -.1088252008553   .4457819222317      91902.858143072  95544.596530047
                      -371231.0601341     -120.0000000      -.4322945730025     -104.1299561      -26127.27676632        0.9618844

               VFUENC
              IFUENC     -214330.3525       428660.705      -.3199654817095  .44578192223672      91902.858144506  95544.596531124
                      371231.06013415      120.0000000      .31039267502223      135.8700439      -26127.27676521        0.9618844

  +++  Node  "COMPC "  has no connected linear branches.  Add (to ground) the conductance  G = 1.00000000E-18  mhos.
  +++  Node  "COMPB "  has no connected linear branches.  Add (to ground) the conductance  G = 1.00000000E-18  mhos.
  +++  Node  "COMPA "  has no connected linear branches.  Add (to ground) the conductance  G = 1.00000000E-18  mhos.
Card of names for time-step loop output.          |  LN1A  LN1B  LN1C  COMPA COMPB COMPC SB1A  SB1B  SB1C  SE2A  SE2B  SE2C  VFF2A
Card of names for time-step loop output.          |  VFF2B VFF2C IFUENAIFUENBIFUENC
Card of names for time-step loop output.          |-5VFF2A VFF2B VFF2B VFF2C VFF2C VFF2A LN1A  LN1B  LN1B  LN1C  LN1C  LN1A
Card of names for time-step loop output.          |-5SB1A  SB1B  SB1B  SB1C  SB1C  SB1A
Blank card ending requests for output variables.  |BLANK OUTPUT

Column headings for the  55   EMTP output variables follow.  These are divided among the 5 possible classes as follows ....
  First  27     output variables are electric-network voltage differences (upper voltage minus lower voltage);
  Next   6     output variables are branch currents (flowing from the upper node to the lower node);
  Next   22     output variables belong to MODELS (with "MODELS" an internally-added upper name of pair).
   Step      Time      LN1A       LN1B       LN1C       COMPA      COMPB      COMPC      SB1A       SB1B       SB1C       SE2A
 

                       SE2B       SE2C       VFF2A      VFF2B      VFF2C      IFUENA     IFUENB     IFUENC     VFF2A      VFF2B
                                                                                                               VFF2B      VFF2C

                       VFF2C      LN1A       LN1B       LN1C       SB1A       SB1B       SB1C       VFUENA     VFUENB     VFUENC
                       VFF2A      LN1B       LN1C       LN1A       SB1B       SB1C       SB1A       IFUENA     IFUENB     IFUENC

                       COMPA      COMPB      COMPC      MODELS     MODELS     MODELS     MODELS     MODELS     MODELS     MODELS
                       RSNSHA     RSNSHB     RSNSHC     ANVOL      LONG       R0F        R1F        X0F        X1F        RDIVX

                       MODELS     MODELS     MODELS     MODELS     MODELS     MODELS     MODELS     MODELS     MODELS     MODELS
                       RINSER     CLOSE1     RPPOS      RPCERO     LPPOS      LPCERO     CPPOS      CPCERO     XP         CR

                       MODELS     MODELS     MODELS     MODELS     MODELS
                       SIMET      ENC1       ENC2       ENC1AS     ENC2AS
 ***      Phasor I(0) =  1.4794343E-07                     Switch  "LN1A  "  to  "COMPA "  closed in the steady-state.
 ***      Phasor I(0) = -7.8638959E-07                     Switch  "LN1B  "  to  "COMPB "  closed in the steady-state.
 ***      Phasor I(0) =  6.5217827E-07                     Switch  "LN1C  "  to  "COMPC "  closed in the steady-state.
 ***      Phasor I(0) = -7.2435242E-01                     Switch  "VFF2A "  to  "RSNNHA"  closed in the steady-state.
 ***      Phasor I(0) =  2.0363561E-01                     Switch  "VFF2B "  to  "RSNNHB"  closed in the steady-state.
 ***      Phasor I(0) =  5.2071680E-01                     Switch  "VFF2C "  to  "RSNNHC"  closed in the steady-state.
 ***      Phasor I(0) =  4.2879068E-01                     Switch  "VFUENA"  to  "IFUENA"  closed in the steady-state.
 ***      Phasor I(0) = -1.0882520E-01                     Switch  "VFUENB"  to  "IFUENB"  closed in the steady-state.
 ***      Phasor I(0) = -3.1996548E-01                     Switch  "VFUENC"  to  "IFUENC"  closed in the steady-state.
 ***      Phasor I(0) =  1.4794343E-07                     Switch  "COMPA "  to  "RSNSHA"  closed in the steady-state.
 ***      Phasor I(0) = -7.8638959E-07                     Switch  "COMPB "  to  "RSNSHB"  closed in the steady-state.
 ***      Phasor I(0) =  6.5217827E-07                     Switch  "COMPC "  to  "RSNSHC"  closed in the steady-state.
      0       0.0  171.013358 -724.16653  553.15317 171.013358 -724.16653  553.15317 428660.856 -214334.18 -214326.68        0.0
                          0.0        0.0 166.525017 -706.05535 539.530334 428660.705 -214330.35 -214330.35 872.580368 -1245.5857
                   373.005317 895.179885 -1277.3197 382.139812 642995.033 -7.4966114 -642987.54 .428790683  -.1088252 -.31996548
                   .147943E-6 -.78639E-6 .652178E-6        0.0   345.4895   2.281647   2.328294   9.243012   9.431983    .246851
                        .1E-5     .04662    .030719    .270463    .342128   1.401308    .014349    .008801   987.8076   19.75615
                          0.0        0.0        0.0        0.0        1.0
    500     .5E-3  284.272264 -749.76466 465.492634 284.272264 -749.76466 465.492634  423383.99 -153622.35 -269761.64        0.0
                          0.0        0.0 276.972978 -731.05153 454.078555  423383.18 -153618.26 -269764.92 1008.02451 -1185.1301
                   177.105577 1034.03692 -1215.2573  181.22037 577006.344 116139.283 -693145.63 .404470898 -.03985284 -.36460049
                   .278775E-6 -.76951E-6  .50271E-6        0.0   345.4895   2.281647   2.328294   9.243012   9.431983    .246851
                        .1E-5     .04662    .030719    .270463    .342128   1.401308    .014349    .008801   987.8076   19.75615
                          0.0        0.0        0.0        0.0        1.0
   1000     .1E-2  390.531379 -756.90125 366.369867 390.531379 -756.90125 366.369867 407682.039 -89127.837  -318554.2        0.0
                          0.0        0.0 380.600945 -738.04681 357.445861 407680.557 -89123.572 -318556.98 1118.64775 -1095.4927
                   -23.155084 1147.43263 -1123.2711 -24.161511 496809.875 229426.364 -726236.24 .370162536 .030091305 -.40024395
                   .422049E-6 -.84968E-6 .375963E-6        0.0   345.4895   2.281647   2.328294   9.243012   9.431983    .246851
                        .1E-5     .04662    .030719    .270463    .342128   1.401308    .014349    .008801   987.8076   19.75615
                          0.0        0.0        0.0        0.0        1.0
   1500     .0015  487.174215 -745.40035  258.22613 487.174215 -745.40035  258.22613 381941.585 -22438.698 -359502.89        0.0
                          0.0        0.0 474.853312 -726.86915 252.015837 381939.485 -22434.368 -359505.12 1201.72246 -978.88499
                   -222.83748 1232.57456 -1003.6265 -228.94809 404380.283 337064.189 -741444.47 .326739028 .099294633 -.42603117
                   .484536E-6 -.76967E-6 .284635E-6        0.0   345.4895   2.281647   2.328294   9.243012   9.431983    .246851
                        .1E-5     .04662    .030719    .270463    .342128   1.401308    .014349    .008801   987.8076   19.75615
                          0.0        0.0        0.0        0.0        1.0
   2000      .002  571.821331 -715.54521 143.723879 571.821331 -715.54521 143.723879 346796.462 44802.9563 -391599.42        0.0
                          0.0        0.0 557.421337 -697.79308 140.371741 346793.795 44807.2448 -391601.04 1255.21441 -838.16482
                    -417.0496 1287.36654 -859.26909 -428.09745 301993.506 436402.374 -738395.88 .275270379 .166053012 -.44132836
                   .621486E-6 -.80479E-6 .154367E-6        0.0   345.4895   2.281647   2.328294   9.243012   9.431983    .246851
                        .1E-5     .04662    .030719    .270463    .342128   1.401308    .014349    .008801   987.8076   19.75615
                          0.0        0.0        0.0        0.0        1.0
   2500     .0025  642.388276 -668.07098 25.6826909 642.388276 -668.07098 25.6826909 303112.059 110941.413 -414053.47        0.0
                          0.0        0.0 626.259563 -651.53499  25.276352 303108.891 110945.554 -414054.45 1277.79455 -676.81134
                   -600.98321 1310.45926 -693.75367 -616.70559 192170.646 524994.885 -717165.53 .217023723 .228722585 -.44575873
                   .699633E-6 -.64505E-6 .265045E-7        0.0   345.4895   2.281647   2.328294   9.243012   9.431983    .246851
                        .1E-5     .04662    .030719    .270463    .342128   1.401308    .014349    .008801   987.8076   19.75615
                          0.0        0.0        0.0        0.0        1.0
   3000      .003  697.136998 -604.14665 -92.990349 697.136998 -604.14665 -92.990349  251964.07 174348.126  -426312.2        0.0
                          0.0        0.0 679.676783 -589.23454 -90.442247 251960.441 174352.016 -426312.46 1268.91133  -498.7923
                   -770.11903 1301.28365  -511.1563 -790.12735  77615.944 600660.322 -678276.27 .153436885 .285760533 -.43921677
                   .771063E-6 -.65378E-6 -.10408E-6        0.0   345.4895   2.281647   2.328294   9.243012   9.431983    .246851
                        .1E-5     .04662    .030719    .270463    .342128   1.401308    .014349    .008801   987.8076   19.75615
                          0.0        0.0        0.0        0.0        1.0
   3500     .0035  734.720702 -525.34618 -209.37452 734.720702 -525.34618 -209.37452 194611.819 233461.806 -428073.62        0.0
                          0.0        0.0 716.358511 -512.42487 -203.93364 194607.888 233465.353 -428073.24 1228.78338 -308.49123
                   -920.29215 1260.06688 -315.97165 -944.09523 -38849.986 661535.431 -622685.44 .086062018 .335761481 -.42184942
                   .776162E-6 -.51441E-6 -.20534E-6        0.0   345.4895   2.281647   2.328294   9.243012   9.431983    .246851
                        .1E-5     .04662    .030719    .270463    .342128   1.401308    .014349    .008801   987.8076   19.75615
                          0.0        0.0        0.0        0.0        1.0
   4000      .004  754.212967 -433.60995 -320.60302 754.212967 -433.60995 -320.60302 132467.602 286826.882 -419294.48        0.0
                          0.0        0.0 735.401104  -422.9976  -312.4035 132463.443 286829.997 -419293.44 1158.39871  -110.5941
                   -1047.8046 1187.82292 -113.00694  -1074.816 -154359.28 706121.366 -551762.09 .016576832 .377495398 -.39410407
                   .834291E-6 -.46392E-6 -.31394E-6        0.0   345.4895   2.281647   2.328294   9.243012   9.431983    .246851
                        .1E-5     .04662    .030719    .270463    .342128   1.401308    .014349    .008801   987.8076   19.75615
                          0.0        0.0        0.0        0.0        1.0
   4500     .0045  755.134024 -331.19668 -423.93695 755.134024 -331.19668 -423.93695 67061.6286 333129.351 -400190.92        0.0
                          0.0        0.0 736.335602 -323.15472 -413.18085 67057.3081 333131.936 -400189.24 1059.49033 90.0261271
                   -1149.5165  1086.3307 92.7402706  -1179.071 -266067.72 733320.266 -467252.54 -.05331865 .409934113 -.35665208
                    .76472E-6 -.35708E-6 -.46543E-6        0.0   345.4895   2.281647   2.328294   9.243012   9.431983    .246851
                        .1E-5     .04662    .030719    .270463    .342128   1.401308    .014349    .008801   987.8076   19.75615
                          0.0        0.0        0.0        0.0        1.0
   5000      .005  737.460799 -220.62857  -516.8324 737.460799 -220.62857  -516.8324  4.3267043 371229.025 -371233.36        0.0
                          0.0        0.0 719.138694 -215.35475 -503.78396 -.45661E-7  371231.06 -371231.06 934.493443 288.429208
                   -1222.9227 958.089371 296.203825 -1254.2932  -371224.7 742462.383 -371237.68 -.12190201 .432278491 -.31041808
                   .810798E-6 -.21936E-6 -.55239E-6        0.0   345.4895   2.281647   2.328294   9.243012   9.431983    .246851
                        .1E-5     .04662    .030719    .270463    .342128   1.401308    .014349    .008801   987.8076   19.75615
                          0.0        0.0        0.0        0.0        1.0
   5500     .0055  701.625051 -104.62785 -596.99719 701.625051 -104.62785 -596.99719 -67053.051 400187.835 -333134.78        0.0
                          0.0        0.0 684.235052 -102.25195  -581.9831 -67057.308 400189.244 -333131.94 786.487005 479.731145
                   -1266.2182 806.252899 492.369341 -1298.6222 -467240.89 733322.617 -266081.73 -.18748122 .443979258 -.25654244
                   .698525E-6 -.11445E-6 -.61939E-6        0.0   345.4895   2.281647   2.328294   9.243012   9.431983    .246851
                        .1E-5     .04662    .030719    .270463    .342128   1.401308    .014349    .008801   987.8076   19.75615
                          0.0        0.0        0.0        0.0        1.0
   6000      .006  648.520327 13.9495375 -662.46986 648.520327 13.9495375 -662.46986 -132459.38 419292.688 -286833.31        0.0
                          0.0        0.0 632.482982 13.3685978 -645.85158 -132463.44  419293.44   -286830. 619.114384 659.220177
                   -1278.3346 634.570789 676.419402 -1310.9902 -551752.06 706126.001 -154373.94   -.248448 .444747402 -.19634595
                   .705932E-6 .138221E-7 -.72253E-6        0.0   345.4895   2.281647   2.328294   9.243012   9.431983    .246851
                        .1E-5     .04662    .030719    .270463    .342128   1.401308    .014349    .008801   987.8076   19.75615
                          0.0        0.0        0.0        0.0        1.0
   6500     .0065  579.443604  132.18294 -711.62753 579.443604  132.18294 -711.62753 -194604.09 428073.165 -233469.07        0.0
                          0.0        0.0 565.153687 128.656692 -693.82019 -194607.89  428073.24 -233465.35 436.496995 822.476881
                   -1258.9739 447.260664 843.810465 -1291.0711 -622677.26 661542.237 -38864.978 -.30329445 .434564603 -.13131754
                   .637914E-6 .150635E-6 -.74855E-6        0.0   345.4895   2.281647   2.328294   9.243012   9.431983    .246851
                        .1E-5     .04662    .030719    .270463    .342128   1.401308    .014349    .008801   987.8076   19.75615
                          0.0        0.0        0.0        0.0        1.0
   7000      .007  496.099233 247.162178 -743.26142 496.099233 247.162178 -743.26142 -251957.02  426313.06 -174356.03        0.0
                          0.0        0.0  483.91458 240.782757 -724.69899 -251960.44 426312.457 -174352.02 243.131823 965.481749
                   -1208.6136 248.937054 990.423599 -1239.3607 -678270.08 600669.095 77600.9898   -.350675 .413681222 -.06305337
                   .541866E-6 .268738E-6 -.73045E-6        0.0   345.4895   2.281647   2.328294   9.243012   9.431983    .246851
                        .1E-5     .04662    .030719    .270463    .342128   1.401308    .014349    .008801   987.8076   19.75615
                          0.0        0.0        0.0        0.0        1.0
   7500     .0075  400.538847  356.05513 -756.59399 400.538847  356.05513 -756.59399 -303105.94 414055.712 -110949.77        0.0
                          0.0        0.0 390.756924 346.977752 -737.73457 -303108.89 414054.446 -110945.55 43.7791718 1084.71233
                   -1128.4915 44.4837174 1112.64912 -1157.1328 -717161.65 525005.486 192156.165  -.3894191 .382611657 .006761449
                    .44658E-6 .351305E-6 -.77736E-6        0.0   345.4895   2.281647   2.328294   9.243012   9.431983    .246851
                        .1E-5     .04662    .030719    .270463    .342128   1.401308    .014349    .008801   987.8076   19.75615
                          0.0        0.0        0.0        0.0        1.0
   8000      .008   295.11591 456.180827 -751.29674  295.11591 456.180827 -751.29674 -346791.37 391602.939 -44811.565        0.0
                          0.0        0.0 287.977897 444.628442 -732.60634  -346793.8  391601.04 -44807.245 -156.65055 1177.23479
                   -1020.5842 -161.06492 1207.47756 -1046.4126 -738394.31 436414.504 301979.808 -.41857465 .342120985 .076410193
                   .322618E-6 .466652E-6 -.73342E-6        0.0   345.4895   2.281647   2.328294   9.243012   9.431983    .246851
                        .1E-5     .04662    .030719    .270463    .342128   1.401308    .014349    .008801   987.8076   19.75615
                          0.0        0.0        0.0        0.0        1.0
   8500     .0085  182.425881 545.073817  -727.4997 182.425881 545.073817  -727.4997 -381937.65 359507.601 22430.0525        0.0
                          0.0        0.0 178.107388 531.330913  -709.4383 -381939.48 359505.117 22434.3679 -353.22353 1240.76921
                   -887.54569 -362.64794 1272.57352 -909.92558 -741445.26 337077.549 404367.706 -.43742371 .293206136 .144177664
                     .1937E-6 .579241E-6 -.77259E-6        0.0   345.4895   2.281647   2.328294   9.243012   9.431983    .246851
                        .1E-5     .04662    .030719    .270463    .342128   1.401308    .014349    .008801   987.8076   19.75615
                          0.0        0.0        0.0        0.0        1.0
   9000      .009  65.2441742 620.544766 -685.79062 65.2441742 620.544766 -685.79062 -407679.36 318559.993  89119.367        0.0
                          0.0        0.0 63.8514721 604.950185 -668.80189 -407680.56 318556.985  89123.572 -541.09871 1273.75207
                   -732.65336 -555.30059 1306.33539  -751.0348 -726239.35 229440.626 496798.728 -.44549892 .237073233 .208395022
                   .690128E-7 .701689E-6 -.70612E-6        0.0   345.4895   2.281647   2.328294   9.243012   9.431983    .246851
                        .1E-5     .04662    .030719    .270463    .342128   1.401308    .014349    .008801   987.8076   19.75615
                          0.0        0.0        0.0        0.0        1.0
   9500     .0095   -53.54374 680.736822 -627.19334  -53.54374 680.736822 -627.19334 -423382.65 269768.382 153614.273        0.0
                          0.0        0.0 -51.976663  663.67371 -611.69708 -423383.18 269764.922 153618.258 -715.65037 1275.37079
                   -559.72042 -734.28056 1307.93017  -573.6496 -693151.04 116154.109 576996.926 -.44261033 .175099193 .267480077
                   -.53178E-7 .699285E-6 -.61531E-6        0.0   345.4895   2.281647   2.328294   9.243012   9.431983    .246851
                        .1E-5     .04662    .030719    .270463    .342128   1.401308    .014349    .008801   987.8076   19.75615
                          0.0        0.0        0.0        0.0        1.0
  10000       .01  -171.01339 724.166513  -553.1531 -171.01339 724.166513  -553.1531 -428660.86 214334.176 214326.679        0.0
                          0.0        0.0  -166.5255 706.055304  -539.5298 -428660.71 214330.353 214330.352  -872.5808 1245.58511
                    -373.0043  -895.1799 1277.31961 -382.13971 -642995.03 7.49702241 642987.535 -.42881951 .108816028 .319979748
                   -.16655E-6 .803467E-6 -.58918E-6        0.0   345.4895   2.281647   2.328294   9.243012   9.431983    .246851
                        .1E-5     .04662    .030719    .270463    .342128   1.401308    .014349    .008801   987.8076   19.75615
                          0.0        0.0        0.0        0.0        1.0
  10500     .0105  -284.27218 749.764718 -465.49254 -284.27218 749.764718 -465.49254 -423384.01 153622.353 269761.653        0.0
                          0.0        0.0 -276.97275  731.05153 -454.07878 -423383.18 153618.258 269764.922 -1008.0243 1185.13031
                   -177.10602 -1034.0369 1215.25726 -181.22036 -577006.36  -116139.3  693145.66 -.40447077 .039853005 .364600705
                   -.30739E-6 .778447E-6 -.46956E-6        0.0   345.4895   2.281647   2.328294   9.243012   9.431983    .246851
                        .1E-5     .04662    .030719    .270463    .342128   1.401308    .014349    .008801   987.8076   19.75615
                          0.0        0.0        0.0        0.0        1.0
  11000      .011  -390.53158 756.901036 -366.37003 -390.53158 756.901036 -366.37003 -407682.02 89127.8373 318554.186        0.0
                          0.0        0.0 -380.60242 738.045341 -357.44726 -407680.56  89123.572 318556.985 -1118.6478 1095.49261
                    23.155154 -1147.4326 1123.27107 24.1615536 -496809.86 -229426.35 726236.211 -.37016142 -.03009119 .400242883
                   -.40823E-6 .767147E-6 -.38644E-6        0.0   345.4895   2.281647   2.328294   9.243012   9.431983    .246851
                        .1E-5     .04662    .030719    .270463    .342128   1.401308    .014349    .008801   987.8076   19.75615
                          0.0        0.0        0.0        0.0        1.0
  11500     .0115  -487.17398 745.400329 -258.22639 -487.17398 745.400329 -258.22639 -381941.59 22438.6977 359502.887        0.0
                          0.0        0.0 -474.85751   726.8686 -252.01199 -381939.48 22434.3679 359505.117 -1201.7261 978.880594
                   222.845511 -1232.5743 1003.62672 228.947588 -404380.28 -337064.19 741444.473  -.3267376 -.09929454 .426029664
                   -.52174E-6  .82159E-6 -.25764E-6        0.0   345.4895   2.281647   2.328294   9.243012   9.431983    .246851
                        .1E-5     .04662    .030719    .270463    .342128   1.401308    .014349    .008801   987.8076   19.75615
                          0.0        0.0        0.0        0.0        1.0
  12000      .012  -571.82131 715.545191 -143.72388 -571.82131 715.545191 -143.72388 -346796.46 -44802.956 391599.421        0.0
                          0.0        0.0 -557.42099 697.793093 -140.37206  -346793.8 -44807.245  391601.04 -1255.2141 838.165157
                   417.048923 -1287.3665 859.269071 428.097431 -301993.51 -436402.38 738395.886 -.27527047 -.16605302 .441328451
                   -.57675E-6  .69508E-6 -.14191E-6        0.0   345.4895   2.281647   2.328294   9.243012   9.431983    .246851
                        .1E-5     .04662    .030719    .270463    .342128   1.401308    .014349    .008801   987.8076   19.75615
                          0.0        0.0        0.0        0.0        1.0
  12500     .0125  -642.38827  668.07096 -25.682689 -642.38827  668.07096 -25.682689 -303112.06 -110941.41 414053.472        0.0
                          0.0        0.0 -626.25978 651.535247 -25.275468 -303108.89 -110945.55 414054.446  -1277.795 676.810715
                   600.984312 -1310.4592 693.753649 616.705584 -192170.65 -524994.88 717165.531 -.21702356 -.22872261  .44575848
                   -.71171E-6 .657396E-6 -.26497E-7        0.0   345.4895   2.281647   2.328294   9.243012   9.431983    .246851
                        .1E-5     .04662    .030719    .270463    .342128   1.401308    .014349    .008801   987.8076   19.75615
                          0.0        0.0        0.0        0.0        1.0
  13000      .013   -697.1352 604.148857 92.9930992  -697.1352 604.148857 92.9930992 -251964.03 -174348.12 426312.159        0.0
                          0.0        0.0 -679.67586 589.234993 90.4421889 -251960.44 -174352.02 426312.457 -1268.9109 498.792804
                   770.118052 -1301.2841 511.155758 790.128296 -77615.908 -600660.28 678276.187 -.15343332 -.28576036   .4392129
                   -.69902E-6 .633725E-6 .956716E-7        0.0   345.4895   2.281647   2.328294   9.243012   9.431983    .246851
                        .1E-5     .04662    .030719    .270463    .342128   1.401308    .014349    .008801   987.8076   19.75615
                          0.0        0.0        0.0        0.0        1.0
  13500     .0135  -734.72092 525.346095 209.374661 -734.72092 525.346095 209.374661 -194611.82 -233461.81 428073.616        0.0
                          0.0        0.0 -716.35849 512.424845 203.933608 -194607.89 -233465.35  428073.24 -1228.7833 308.491238
                   920.292094  -1260.067 315.971434 944.095577 38849.9923 -661535.42 622685.431 -.08606469 -.33576165 .421852238
                   -.75361E-6 .581183E-6 .223692E-6        0.0   345.4895   2.281647   2.328294   9.243012   9.431983    .246851
                        .1E-5     .04662    .030719    .270463    .342128   1.401308    .014349    .008801   987.8076   19.75615
                          0.0        0.0        0.0        0.0        1.0
  14000      .014  -754.21329 433.609936 320.603421 -754.21329 433.609936 320.603421 -132467.61 -286826.88 419294.496        0.0
                          0.0        0.0 -735.40106 422.997595 312.403479 -132463.44   -286830.  419293.44 -1158.3987 110.594115
                   1047.80454 -1187.8232 113.006515 1074.81671 154359.271 -706121.38 551762.107 -.01657558 -.37749523 .394102938
                   -.77169E-6 .462961E-6 .334199E-6        0.0   345.4895   2.281647   2.328294   9.243012   9.431983    .246851
                        .1E-5     .04662    .030719    .270463    .342128   1.401308    .014349    .008801   987.8076   19.75615
                          0.0        0.0        0.0        0.0        1.0
  14500     .0145  -755.13376 331.196798 423.936938 -755.13376 331.196798 423.936938  -67061.61 -333129.33  400190.94        0.0
                          0.0        0.0 -736.33565 323.154713 413.180933 -67057.308 -333131.94 400189.244 -1059.4904  -90.02622
                   1149.51659 -1086.3306  -92.74014  1179.0707  266067.72 -733320.27  467252.55 .053318471 -.40993403 .356652475
                    -.7726E-6 .362512E-6 .454427E-6        0.0   345.4895   2.281647   2.328294   9.243012   9.431983    .246851
                        .1E-5     .04662    .030719    .270463    .342128   1.401308    .014349    .008801   987.8076   19.75615
                          0.0        0.0        0.0        0.0        1.0
  % % % % % %   Suspended simulation;  plot data space exhausted;  SPY SPACE is required.   LIMBUF =  840000.
  % % % % % %   Suspended simulation;  plot data space exhausted;  SPY SPACE is required.   LIMBUF =  840000.
  +++  Time-sharing disabled.   Send  user-keyed interrupt to silence alarm.
   Current values.  INDBUF  INDBEG  LIMBUF  MFLUSH  NUMDCD  KCARD1  KCARD2
                    839994      50  840000    1000     230       1     231
Plot timespan now in memory (in sec) = 0.00000000E+00   1.49990000E-02
   ++++  Begin plot-data copy from memory to disk.   MFLUSH, INDBUF, N4, Tbeg,  Tend = 1001  839994       1  -1.00000E+00
1.00000E+19
  15000      .015  -737.46075 220.628506 516.832241 -737.46075 220.628506 516.832241 -4.3286021 -371229.03 371233.356        0.0
                          0.0        0.0 -719.13919 215.354699 503.784488 -.61533E-6 -371231.06  371231.06 -934.49389 -288.42979
                   1222.92368 -958.08925 -296.20373 1254.29299 371224.699 -742462.38 371237.684 .121901987 -.43227861 .310417844
                   -.77726E-6 .227355E-6 .489468E-6        0.0   345.4895   2.281647   2.328294   9.243012   9.431983    .246851
                        .1E-5     .04662    .030719    .270463    .342128   1.401308    .014349    .008801   987.8076   19.75615
                          0.0        0.0        0.0        0.0        1.0
  15500     .0155  -701.62895 104.627674 597.001487 -701.62895 104.627674 597.001487 67053.0561 -400187.83 333134.778        0.0
                          0.0        0.0  -684.2341  102.25238 581.982928 67057.3081 -400189.24 333131.936 -786.48648 -479.73055
                   1266.21703 -806.25663 -492.37381 1298.63044  467240.89 -733322.61 266081.722 .187483313 -.44397912 .256540238
                   -.78486E-6 .114671E-6 .617991E-6        0.0   345.4895   2.281647   2.328294   9.243012   9.431983    .246851
                        .1E-5     .04662    .030719    .270463    .342128   1.401308    .014349    .008801   987.8076   19.75615
                          0.0        0.0        0.0        0.0        1.0
  16000      .016  -648.52088 -13.949565 662.470495 -648.52088 -13.949565 662.470495 132459.373 -419292.69 286833.316        0.0
                          0.0        0.0 -632.48276 -13.368401 645.851775 132463.443 -419293.44 286829.997 -619.11436 -659.22018
                   1278.33453 -634.57131 -676.42006 1310.99137 551752.061   -706126. 154373.943 .248448271 -.44474737 .196345688
                   -.72894E-6 -.14825E-7   .7411E-6        0.0   345.4895   2.281647   2.328294   9.243012   9.431983    .246851
                        .1E-5     .04662    .030719    .270463    .342128   1.401308    .014349    .008801   987.8076   19.75615
                          0.0        0.0        0.0        0.0        1.0
  16500     .0165  -579.44467 -132.18332 711.627994 -579.44467 -132.18332 711.627994 194604.104 -428073.16  233469.06        0.0
                          0.0        0.0   -565.157 -128.66002 693.816868 194607.888 -428073.24 233465.353 -436.49698 -822.47689
                   1258.97387 -447.26135 -843.81131 1291.07267 622677.269 -661542.23  38864.956 .303295006 -.43456452  .13131707
                   -.65768E-6 -.13642E-6 .713859E-6        0.0   345.4895   2.281647   2.328294   9.243012   9.431983    .246851
                        .1E-5     .04662    .030719    .270463    .342128   1.401308    .014349    .008801   987.8076   19.75615
                          0.0        0.0        0.0        0.0        1.0
  17000      .017  -496.09879 -247.16216 743.260948 -496.09879 -247.16216 743.260948 251957.027 -426313.06 174356.033        0.0
                          0.0        0.0 -483.91483 -240.78329 724.698129 251960.441 -426312.46 174352.016 -243.13154 -965.48142
                   1208.61295 -248.93663 -990.42311 1239.35974 678270.086 -600669.09 -77600.993 .350674236 -.41368121 .063054299
                   -.51466E-6 -.24739E-6 .822532E-6        0.0   345.4895   2.281647   2.328294   9.243012   9.431983    .246851
                        .1E-5     .04662    .030719    .270463    .342128   1.401308    .014349    .008801   987.8076   19.75615
                          0.0        0.0        0.0        0.0        1.0
  17500     .0175  -400.53882  -356.0552 756.593814 -400.53882  -356.0552 756.593814  303105.94 -414055.71 110949.778        0.0
                          0.0        0.0 -390.75723 -346.97776 737.734931 303108.891 -414054.45 110945.554 -43.779468 -1084.7127
                   1128.49216  -44.48362  -1112.649 1157.13264  717161.65 -525005.49 -192156.16 .389419983 -.38261081 -.00676064
                   -.42944E-6 -.38287E-6 .812404E-6        0.0   345.4895   2.281647   2.328294   9.243012   9.431983    .246851
                        .1E-5     .04662    .030719    .270463    .342128   1.401308    .014349    .008801   987.8076   19.75615
                          0.0        0.0        0.0        0.0        1.0
  18000      .018  -295.11572 -456.18058 751.297053 -295.11572 -456.18058 751.297053 346791.372 -391602.94  44811.567        0.0
                          0.0        0.0 -287.97841 -444.62842 732.607016 346793.795 -391601.04 44807.2448 156.650009 -1177.2354
                   1020.58542 161.064863 -1207.4776 1046.41277 738394.311 -436414.51 -301979.81 .418574826 -.34212084 -.07641009
                   -.33071E-6  -.5063E-6 .780972E-6        0.0   345.4895   2.281647   2.328294   9.243012   9.431983    .246851
                        .1E-5     .04662    .030719    .270463    .342128   1.401308    .014349    .008801   987.8076   19.75615
                          0.0        0.0        0.0        0.0        1.0
  18500     .0185  -182.42617 -545.07383 727.500021 -182.42617 -545.07383 727.500021 381937.654  -359507.6 -22430.053        0.0
                          0.0        0.0 -178.10749 -531.33092 709.438408 381939.485 -359505.12 -22434.368 353.223427 -1240.7693
                   887.545898 362.647654 -1272.5738 909.926195 741445.255 -337077.55 -404367.71  .43742377 -.29320592 -.14417726
                   -.20424E-6 -.61614E-6 .772125E-6        0.0   345.4895   2.281647   2.328294   9.243012   9.431983    .246851
                        .1E-5     .04662    .030719    .270463    .342128   1.401308    .014349    .008801   987.8076   19.75615
                          0.0        0.0        0.0        0.0        1.0
  19000      .019  -65.244555 -620.54532 685.789858 -65.244555 -620.54532 685.789858 407679.363 -318559.99 -89119.369        0.0
                          0.0        0.0  -63.85144 -604.95026 668.801691 407680.557 -318556.98 -89123.572 541.098816 -1273.7519
                   732.653131 555.300767 -1306.3352 751.034412 726239.356 -229440.62 -496798.73 .445501594 -.23707163 -.20839469
                   -.69084E-7 -.62555E-6 .726024E-6        0.0   345.4895   2.281647   2.328294   9.243012   9.431983    .246851
                        .1E-5     .04662    .030719    .270463    .342128   1.401308    .014349    .008801   987.8076   19.75615
                          0.0        0.0        0.0        0.0        1.0
  19500     .0195  53.5450192 -680.73622 627.193116 53.5450192 -680.73622 627.193116 423382.654 -269768.38 -153614.27        0.0
                          0.0        0.0 51.9789832 -663.67148 611.699179  423383.18 -269764.92 -153618.26 715.650467 -1275.3707
                   559.720196 734.281244 -1307.9293 573.648097 693151.035 -116154.11 -576996.93 .442610508 -.17509969 -.26748137
                   .552054E-7 -.75038E-6 .656059E-6        0.0   345.4895   2.281647   2.328294   9.243012   9.431983    .246851
                        .1E-5     .04662    .030719    .270463    .342128   1.401308    .014349    .008801   987.8076   19.75615
                          0.0        0.0        0.0        0.0        1.0
  20000       .02  171.013457 -724.16644 553.153165 171.013457 -724.16644 553.153165 428660.855 -214334.18 -214326.68        0.0
                          0.0        0.0 166.525341 -706.05502 539.530598 428660.705 -214330.35 -214330.35 872.580359 -1245.5856
                   373.005257 895.179894 -1277.3196 382.139709 642995.031 -7.4982665 -642987.53  .42881999 -.10881589 -.31998002
                   .187337E-6 -.77429E-6 .524742E-6        0.0   345.4895   2.281647   2.328294   9.243012   9.431983    .246851
                        .1E-5     .04662    .030719    .270463    .342128   1.401308    .014349    .008801   987.8076   19.75615
                          0.0        0.0        0.0        0.0        1.0
  20500     .0205  284.272561 -749.76468 465.492136 284.272561 -749.76468 465.492136 423384.007 -153622.35 -269761.65        0.0
                          0.0        0.0 276.975702 -731.05128 454.075768  423383.18 -153618.26 -269764.92 1008.02699 -1185.1271
                   177.100066 1034.03724 -1215.2568 181.219575  577006.36 116139.302 -693145.66 .404470494 -.03985299 -.36460035
                    .30538E-6 -.78218E-6 .475702E-6        0.0   345.4895   2.281647   2.328294   9.243012   9.431983    .246851
                        .1E-5     .04662    .030719    .270463    .342128   1.401308    .014349    .008801   987.8076   19.75615
                          0.0        0.0        0.0        0.0        1.0
  21000      .021  390.531366 -756.90122 366.369851 390.531366 -756.90122 366.369851 407682.038 -89127.837  -318554.2        0.0
                          0.0        0.0 380.601335 -738.04677 357.445382 407680.557 -89123.572 -318556.98  1118.6481 -1095.4922
                   -23.155953 1147.43258 -1123.2711 -24.161515 496809.875 229426.364 -726236.24 .370162064  .03009128 -.40024345
                   .394094E-6 -.83328E-6 .379572E-6        0.0   345.4895   2.281647   2.328294   9.243012   9.431983    .246851
[...]
                        .1E-5     .04662    .030719    .270463    .342128   1.401308    .014349    .008801   987.8076   19.75615
                          0.0        0.0        0.0        0.0        1.0
 113000      .113  -226484.89 -241166.86 467651.749 -226484.89 -241166.86 467651.749 -226484.89 -241166.86  467651.75        0.0
                          0.0        0.0  -258732.6 -228227.52 486960.114 -251960.44 -174352.02 426312.457 -30505.083 -715187.63
                   745692.712 14681.9739 -708818.61 694136.637 14681.9765 -708818.61 694136.637 410.704342  -889.0663 478.361961
                   -.25213E-3 -.28034E-3 .475705E-3        0.0   345.4895   2.281647   2.328294   9.243012   9.431983    .246851
                        .1E-5     .04662    .030719    .270463    .342128   1.401308    .014349    .008801   987.8076   19.75615
                          0.0        0.0        0.0        0.0        1.0
 113500     .1135  -202538.92  -222531.7 425070.623 -202538.92  -222531.7 425070.623 -202538.92  -222531.7 425070.623        0.0
                          0.0        0.0 -122493.29 -421077.78 543571.077 -194607.89 -233465.35  428073.24 298584.487 -964648.86
                   666064.372 19992.7757 -647602.32 627609.547 19992.7767 -647602.32 627609.547 199.337069 -302.15289 102.815824
                   -.22423E-3 -.25872E-3 .482947E-3        0.0   345.4895   2.281647   2.328294   9.243012   9.431983    .246851
                        .1E-5     .04662    .030719    .270463    .342128   1.401308    .014349    .008801   987.8076   19.75615
                          0.0        0.0        0.0        0.0        1.0
 114000      .114  -151872.49 -255201.14 407073.629 -151872.49 -255201.14 407073.629 -151872.49 -255201.14  407073.63        0.0
                          0.0        0.0 -68013.831 -413262.15 481275.977 -132463.44   -286830.  419293.44 345248.315 -894538.12
                   549289.807 103328.648 -662274.77  558946.12 103328.649 -662274.77  558946.12 317.093911  -456.4592 139.365292
                   -.16344E-3 -.27546E-3 .465989E-3        0.0   345.4895   2.281647   2.328294   9.243012   9.431983    .246851
                        .1E-5     .04662    .030719    .270463    .342128   1.401308    .014349    .008801   987.8076   19.75615
                          0.0        0.0        0.0        0.0        1.0
 114500     .1145  -67677.716 -332194.04 399871.757 -67677.716 -332194.04 399871.757 -67677.716 -332194.04 399871.756        0.0
                          0.0        0.0 23303.9969 -457367.55 434063.554 -67057.308 -333131.94 400189.244 480671.548  -891431.1
                   410759.557 264516.325  -732065.8 467549.473 264516.325  -732065.8 467549.472 116.942883 13.6732332 -130.61612
                    -.6863E-4  -.3487E-3 .462621E-3        0.0   345.4895   2.281647   2.328294   9.243012   9.431983    .246851
                        .1E-5     .04662    .030719    .270463    .342128   1.401308    .014349    .008801   987.8076   19.75615
                          0.0        0.0        0.0        0.0        1.0
 115000      .115  17633.5754  -398201.7 380568.123 17633.5754  -398201.7 380568.123  17633.575  -398201.7 380568.123        0.0
                          0.0        0.0 52265.5616 -400160.31 347894.747 .127058E-4 -371231.06  371231.06 452425.872 -748055.06
                   295629.186 415835.275 -778769.82 362934.548 415835.274 -778769.82 362934.548 -192.66142 566.270759 -373.60934
                   .180935E-4 -.43276E-3 .433743E-3        0.0   345.4895   2.281647   2.328294   9.243012   9.431983    .246851
                        .1E-5     .04662    .030719    .270463    .342128   1.401308    .014349    .008801   987.8076   19.75615
                          0.0        0.0        0.0        0.0        1.0
 115500     .1155  89251.2232 -436322.79 347071.568 89251.2232 -436322.79 347071.568 89251.2227 -436322.79 347071.567        0.0
                          0.0        0.0 145660.783 -478640.26 332979.474 67057.3081 -400189.24 333131.936  624301.04 -811619.73
                   187318.692 525574.014 -783394.36 257820.345 525574.013 -783394.36 257820.345 -255.47475 557.672567 -302.19781
                   .105729E-3 -.48353E-3 .363499E-3        0.0   345.4895   2.281647   2.328294   9.243012   9.431983    .246851
                        .1E-5     .04662    .030719    .270463    .342128   1.401308    .014349    .008801   987.8076   19.75615
                          0.0        0.0        0.0        0.0        1.0
 116000      .116  131543.718 -409902.79 278359.076 131543.718 -409902.79 278359.076 131543.717 -409902.79 278359.075        0.0
                          0.0        0.0 148059.225 -373037.52 224978.297 132463.443 -419293.44 286829.997 521096.744 -598015.82
                   76919.0729 541446.508 -688261.87 146815.358 541446.506 -688261.86 146815.358 -275.60958 432.387027 -156.77745
                   .148049E-3 -.46398E-3 .317961E-3        0.0   345.4895   2.281647   2.328294   9.243012   9.431983    .246851
                        .1E-5     .04662    .030719    .270463    .342128   1.401308    .014349    .008801   987.8076   19.75615
                          0.0        0.0        0.0        0.0        1.0
 116500     .1165  185370.872 -408519.63 223148.762 185370.872 -408519.63 223148.762 185370.872 -408519.63 223148.762        0.0
                          0.0        0.0 103433.534 -204133.13 100699.599 194607.888 -428073.24 233465.353 307566.667 -304832.73
                   -2733.9348 593890.507  -631668.4 37777.8899 593890.507  -631668.4 37777.8902 -93.710122 17.1142788 76.5958456
                   .198817E-3 -.46304E-3 .261813E-3        0.0   345.4895   2.281647   2.328294   9.243012   9.431983    .246851
                        .1E-5     .04662    .030719    .270463    .342128   1.401308    .014349    .008801   987.8076   19.75615
                          0.0        0.0        0.0        0.0        1.0
 117000      .117  245920.646 -410729.14 164808.496 245920.646 -410729.14 164808.496 245920.646 -410729.14 164808.496        0.0
                          0.0        0.0 160581.968 -249601.81 89019.8417 251960.441 -426312.46 174352.016 410183.779 -338621.65
                   -71562.126 656649.789 -575537.64  -81112.15 656649.789 -575537.64  -81112.15 -173.84406 169.175688 4.66836949
                      .259E-3 -.42342E-3 .195548E-3        0.0   345.4895   2.281647   2.328294   9.243012   9.431983    .246851
                        .1E-5     .04662    .030719    .270463    .342128   1.401308    .014349    .008801   987.8076   19.75615
                          0.0        0.0        0.0        0.0        1.0
 117500     .1175  285441.209 -380961.54 95520.3283 285441.209 -380961.54 95520.3283 285441.209 -380961.54 95520.3287        0.0
                          0.0        0.0 198182.888 -262377.08   64194.19 303108.891 -414054.45 110945.554 460559.965 -326571.27
                    -133988.7 666402.745 -476481.86 -189920.88 666402.746 -476481.87 -189920.88 17.4656511 -203.19173 185.726083
                   .318508E-3 -.40079E-3 .110455E-3        0.0   345.4895   2.281647   2.328294   9.243012   9.431983    .246851
                        .1E-5     .04662    .030719    .270463    .342128   1.401308    .014349    .008801   987.8076   19.75615
                          0.0        0.0        0.0        0.0        1.0
 118000      .118  352981.687 -413952.23 60970.5449 352981.687 -413952.23 60970.5449 352981.688 -413952.23 60970.5455        0.0
                          0.0        0.0 314753.532 -400923.25 86169.7229 346793.795 -391601.04 44807.2447 715676.786 -487092.98
                   -228583.81 766933.919 -474922.78 -292011.14 766933.921 -474922.78 -292011.14 269.724291 -585.46509 315.740802
                    .38818E-3 -.48693E-3 .697896E-4        0.0   345.4895   2.281647   2.328294   9.243012   9.431983    .246851
                        .1E-5     .04662    .030719    .270463    .342128   1.401308    .014349    .008801   987.8076   19.75615
                          0.0        0.0        0.0        0.0        1.0
 118500     .1185  357268.808  -318214.5 -39054.305 357268.808  -318214.5 -39054.305 357268.808  -318214.5 -39054.304        0.0
                          0.0        0.0 319608.609 -311212.27 -8396.3394 381939.485 -359505.12 -22434.368 630820.875 -302815.93
                   -328004.95 675483.308  -279160.2 -396323.11  675483.31  -279160.2 -396323.11 308.610484 -534.60605 225.995563
                   .374906E-3 -.34714E-3 -.41891E-4        0.0   345.4895   2.281647   2.328294   9.243012   9.431983    .246851
                        .1E-5     .04662    .030719    .270463    .342128   1.401308    .014349    .008801   987.8076   19.75615
                          0.0        0.0        0.0        0.0        1.0
 119000      .119  436527.078  -381326.5 -55200.579 436527.078  -381326.5 -55200.579 436527.078  -381326.5 -55200.579        0.0
                          0.0        0.0 413485.147  -399735.1 -13750.048 407680.557 -318556.98 -89123.572 813220.244 -385985.05
                    -427235.2 817853.576 -326125.92 -491727.66 817853.576 -326125.92 -491727.66 205.813514 -198.20186 -7.6116509
                   .503398E-3 -.42912E-3 -.59668E-4        0.0   345.4895   2.281647   2.328294   9.243012   9.431983    .246851
                        .1E-5     .04662    .030719    .270463    .342128   1.401308    .014349    .008801   987.8076   19.75615
                          0.0        0.0        0.0        0.0        1.0
 119500     .1195  440328.333 -299590.23 -140738.11 440328.333 -299590.23 -140738.11 440328.333 -299590.23 -140738.11        0.0
                          0.0        0.0  510703.72 -472607.99 -38095.725  423383.18 -269764.92 -153618.26 983311.714 -434512.27
                   -548799.45  739918.56 -158852.12 -581066.44  739918.56 -158852.12 -581066.44 -59.864771 313.548726 -253.68396
                   .497978E-3 -.31044E-3 -.15876E-3        0.0   345.4895   2.281647   2.328294   9.243012   9.431983    .246851
                        .1E-5     .04662    .030719    .270463    .342128   1.401308    .014349    .008801   987.8076   19.75615
                          0.0        0.0        0.0        0.0        1.0
  % % % % % %   Suspended simulation;  plot data space exhausted;  SPY SPACE is required.   LIMBUF =  840000.
  % % % % % %   Suspended simulation;  plot data space exhausted;  SPY SPACE is required.   LIMBUF =  840000.
  +++  Time-sharing disabled.   Send  user-keyed interrupt to silence alarm.
   Current values.  INDBUF  INDBEG  LIMBUF  MFLUSH  NUMDCD  KCARD1  KCARD2
                    839994      50  840000    1007     230       1     231
Plot timespan now in memory (in sec) = 1.04985997E-01   1.19985000E-01
   ++++  Begin plot-data copy from memory to disk.   MFLUSH, INDBUF, N4, Tbeg,  Tend = 1008  839994       1  -1.00000E+00
1.00000E+19
 120000       .12  455881.708 -266454.82 -189426.89 455881.708 -266454.82 -189426.89 455881.708 -266454.82 -189426.89        0.0
                          0.0        0.0 541910.091 -429672.07 -112238.02 428660.705 -214330.35 -214330.35 971582.159 -317434.04
                   -654148.11  722336.53 -77027.936 -645308.59 722336.529 -77027.935 -645308.59 -45.445841 228.779137  -183.3333
                   .521123E-3 -.29748E-3 -.22361E-3        0.0   345.4895   2.281647   2.328294   9.243012   9.431983    .246851
                        .1E-5     .04662    .030719    .270463    .342128   1.401308    .014349    .008801   987.8076   19.75615
                          0.0        0.0        0.0        0.0        1.0

Extrema of output variables follow.   Order and column positioning are the same as for the preceding time-step loop output.
Variable maxima :  475804.541 584280.339 540798.331 475804.541 584280.339 540798.331 475804.541  584280.34 540798.331        0.0
                          0.0        0.0 641456.727 923379.576 681268.038 428660.705 428660.703 428660.703 .1389948E7 .1524906E7
                    990298.34 .1028356E7 864328.568 765153.493 .1028356E7 864328.567 765153.493 869.677226 1995.53505 1774.82405
                    .55864E-3 .697454E-3 .660509E-3        0.0   345.4895   2.281647   2.328294   9.243012   9.431983    .246851
                        .1E-5     .04662    .030719    .270463    .342128   1.401308    .014349    .008801   987.8076   19.75615
                          0.0        0.0        0.0        0.0        1.0
Times of maxima :     .080142    .049456    .052357    .080142    .049456    .052357    .080142    .049456    .052357        0.0
                          0.0        0.0    .059418    .065921    .051365        0.0    .006667    .113333    .057376      .0659
                      .051008    .058198    .065892    .051599    .058198    .065892    .051599    .052197    .064507    .049862
                      .060693    .066896    .052369        0.0        0.0        0.0        0.0        0.0        0.0        0.0
                          0.0        0.0        0.0        0.0        0.0        0.0        0.0        0.0        0.0        0.0
                          0.0        0.0        0.0        0.0        0.0
Variable minima :  -570656.09 -571963.41 -475696.31 -570656.09 -571963.41 -475696.31  -570656.1 -571963.41 -475696.31        0.0
                          0.0        0.0 -762584.02 -923363.48  -606008.2 -428660.71  -428660.7  -428660.7 -.134494E7 -.142149E7
                   -879383.92 -.115429E7 -916541.07 -767420.14 -.115429E7 -916541.06 -767420.14 -1463.3062 -1899.5531 -1139.0929
                   -.68631E-3 -.71355E-3 -.56499E-3        0.0   345.4895   2.281647   2.328294   9.243012   9.431983    .246851
                        .1E-5     .04662    .030719    .270463    .342128   1.401308    .014349    .008801   987.8076   19.75615
                          0.0        0.0        0.0        0.0        1.0
Times of minima :     .049468    .058179    .083008    .049468    .058179    .083008    .049468    .058179    .083008        0.0
                          0.0        0.0    .050774     .05724    .065866        .01    .016667    .103333    .050772    .074735
                      .081622     .04946    .054966    .081905     .04946    .054966    .081905    .049352    .073293     .05861
                      .049456    .058154    .082993        0.0        0.0        0.0        0.0        0.0        0.0        0.0
                          0.0        0.0        0.0        0.0        0.0        0.0        0.0        0.0        0.0        0.0
                          0.0        0.0        0.0        0.0        0.0

Blank card terminating all plot cards.            |BLANK PLOT

Memory storage figures for the preceding, now-completed data case.  -------------------------------  Present   Program
A value of  "-9999"  indicates that no figure is available.         28-Feb-22  21:00:34              figure     limit  (name)
     Size List 1.   Number of electric network nodes.                                                   37      6000  (LBUS)
     Size List 2.   Number of electric network branches.                                                39     10000  (LBRNCH)
     Size List 3.   Number of data values in R, L, C tables.                                            45    192000  (LDATA)
     Size List 4.   Number of electric network sources.                                                  3       900  (LEXCT)
     Size List 5.   Storage for [Y] and triangularized [Y].   No. times =    3     Factors =    66     189    420000  (LYMAT)
     Size List 6.   Number of entries in switch table.                  No. flops = 18                  21      1200  (LSWTCH)
     Size List 7.   Number of distinct ALPHANUMERIC data names plus program SPY variables.              25     15000  (LSIZE7)
     Size List 8.   History points of distributed lines.                                              4900    120000  (LPAST)
     Size List 9.   Number of nonlinear elements.                                                        0      2250  (LNONL)
     Size List 10.  Points of nonlinear characteristics.                                                 0      3800  (LCHAR)
     Size List 11.  Number of Type-59 S.M. outputs.                                                      0       720  (LSMOUT)
     Size List 12.  Total number of EMTP output variables.                                              55      2000  (LSIZ12)
     Size List 13.  Working space for batch/SPY plotting.                                            -9999     72800  (LSIZ13)
     Size List 14.  S.M./U.M. connections to TACS.                                                   -9999       510  (LBSTAC)
     Size List 15.  Character storage in bytes for MODELS.                                            3299     90000  (LCTACS)
     Size List 16.  Total number of Type-59 S.M. masses.                                                 0       800  (LIMASS)
     Size List 17.  Number of Type-59 Synchronous machines.                                              0        90  (LSYN)
     Size List 18.  Branch and switch power/energy outputs.                                              0       254  (MAXPE)
     Size List 19.  Total floating-point TACS table space.                                              23    120000  (LTACST)
     Size List 20.  Non-copied recursive convolution data.                                               0    100000  (LFSEM)
     Size List 21.  Total modal/phase [T] matrix storage.                                                9      3000  (LFD)
     Size List 22.  Total recursive convolution history.                                                 0     15000  (LHIST)
     Size List 23.  Giant vectors for renumbering, phasors;  also extrema accumulation.                  93    192000  (LSIZ23)
     Size List 24.  Peak phases of compensation for data.                                                0       120  (LCOMP)
     Size List 25.  Total table space for all U.M usage.                                             -9999     45000  (LSPCUM)
     Size List 26.  Square of max number of coupled phases.                                              9    260000  (LSIZ26)
     Size List 27.  Maximum number of MODELS top variables.                                             44       600  (LSIZ27)
     Size List 28.  MODELS.  Total work space is divided into INTEGER and REAL.  1st, REAL:           1780    210000  (LRTACS)
                             Second  and last,  statistics for INTEGER work space.                    6838         0  (LITACS)
     Size List 29.  RAM disk used by "TAPSAV" table saving (limit is "LABCOM" size LTLABL).          -9999       600  (LSIZ29)
     Size List 30.  Taku Noda frequency-dependent circuits.                                              0        19  (LSIZ30)
Timing figures characterizing central processor (CP) solution speed.  ----------------------------   CP sec  Wait sec  Real sec
     Data input time (through blank card ending branches) ....                                       0.031     0.000     0.031
     Node renumbering and phasor solution  ....                                                      0.031     0.000     0.031
     After phasor solution, but before time-step loop  ....                                          0.016     0.000     0.016
     Integration of equations (time-step loop)  ....                                                 1.141     0.000     1.141
     Plotting or STATISTICS termination overlays ....                                                0.000     0.000     0.000
                                                                                                    ---------------------------
                                                                                          Totals      1.219     0.000     1.219

