   ---   236   cards of disk file read into card cache cells  1   onward.
 Comment card is ignored.      |C   LBUS  LBRNCH   LDATA   LEXCT   LYMAT  LSWTCH
 Limit CIDEAL cards =   200    |CARDS        200 { Limit of CIDEAL will be 2 mor
 1st card (Lists  1-10).       |    6000   10000  192000     900  420000    120
 Comment card is ignored.      |C LSMOUT  LSIZ12  LSIZ13  LBSTAC  LCTACS  LIMASS
 2nd card (Lists 11-20).       |     720    2000   72800     510   90000     80
 Comment card is ignored.      |C    LFD   LHIST  LSIZ23   NCOMP  LSPCUM  LSIZ26
 3rd card (Lists 21-30).       |    3000   15000  192000     120   45000  26000
 4th card (Lists 31-32).       |     200     300     { Optional card for Lists
 Comment card is ignored.      |C  LWORK  LMARTI
 Supplemental offsets.         |  840000     742
 <===> Done with  "/"-card sorting by data class.    Remember that the source file appears different from interpreted input data.
Alternative Transients Program (ATP),  GNU Linux or DOS.  All rights reserved by Can/Am user group of Portland, Oregon, USA.
 Date (dd-mth-yy) and time of day (hh.mm.ss) = 28-Feb-22  19:03:07   Name of disk plot file is  atp\bdfinalisima\energizacion27.pl4
Consult the 860-page ATP Rule Book of the Can/Am EMTP User Group in Portland,  Oregon, USA.  Source code date is 12 August 2008.
Total size of LABCOM tables = 10913436 INTEGER words.  31 VARDIM  List Sizes follow:  6002  10K  192K  900  420K  1200  15K
  120K  2250  3800  720  2K  72800  510  90K  800  90  254  120K  100K  3K  15K  192K  120  45K  260K  600  210K  1100  60  200
--------------------------------------------------+--------------------------------------------------------------------------------
Descriptive interpretation of input data cards.   |  Input data card images are shown below, all 80 columns, character by character
                                                  0         1         2         3         4         5         6         7         8
                                                  012345678901234567890123456789012345678901234567890123456789012345678901234567890
--------------------------------------------------+--------------------------------------------------------------------------------
Comment card.   NUMDCD = 1.                       |C data:D:\ATP\BDFINALISIMA\ENERGIZACION27.ATP
Marker card preceding new EMTP data case.         |BEGIN NEW DATA CASE
Comment card.   NUMDCD = 3.                       |C --------------------------------------------------------
Comment card.   NUMDCD = 4.                       |C Generated by ATPDRAW  febrero, lunes 28, 2022
Comment card.   NUMDCD = 5.                       |C A Bonneville Power Administration program
Comment card.   NUMDCD = 6.                       |C by H. K. Høidalen at SEfAS/NTNU - NORWAY 1994-2016
Comment card.   NUMDCD = 7.                       |C --------------------------------------------------------
Comment card.   NUMDCD = 8.                       |C  dT  >< Tmax >< Xopt >< Copt ><Epsiln>
Misc. data.     1.000E-06   1.200E-01   5.000E+01 |   1.E-6     .12     50.
Misc. data.    500    1  0  1  1  0  0  0  0  0   |     500       1       0       1       1       0       0       0       0
  ///  Warning.  Nonzero XOPT or COPT differs from the power frequency of  6.00000000E+01  Hz.   Did the user really want this?
No TACS data,  but MODELS data begins (next).     |MODELS
      Another ordinary MODELS data card.          |OUTPUT
      Another ordinary MODELS data card.          |  AnVol
      Another ordinary MODELS data card.          |  LONG
      Another ordinary MODELS data card.          |  R0F
      Another ordinary MODELS data card.          |  R1F
      Another ordinary MODELS data card.          |  X0F
      Another ordinary MODELS data card.          |  X1F
      Another ordinary MODELS data card.          |  RDIVX
      Another ordinary MODELS data card.          |  RINSER
      Another ordinary MODELS data card.          |  CLOSE1
      Another ordinary MODELS data card.          |  RPpos
      Another ordinary MODELS data card.          |  RPcero
      Another ordinary MODELS data card.          |  LPpos
      Another ordinary MODELS data card.          |  LPcero
      Another ordinary MODELS data card.          |  CPpos
      Another ordinary MODELS data card.          |  CPcero
      Another ordinary MODELS data card.          |  Xp
      Another ordinary MODELS data card.          |  CR
      Another ordinary MODELS data card.          |  SIMET
      Another ordinary MODELS data card.          |  ENC1
      Another ordinary MODELS data card.          |  ENC2
      Another ordinary MODELS data card.          |  ENC1AS
      Another ordinary MODELS data card.          |  ENC2AS
      Another ordinary MODELS data card.          |MODEL DEFAULT
      Another ordinary MODELS data card.          |DATA AnVol,LONG,R0F,R1F,X0F,X1F,RDIVX,RINSER,CLOSE1,RPpos,RPcero,LPpos,LPcero
      Another ordinary MODELS data card.          |OUTPUT o1,o2,o3, o4, o5, o6, o7, o8, o9, o10, o11, o12, o13
      Another ordinary MODELS data card.          |VAR o1,o2,o3, o4, o5, o6, o7, o8, o9, o10, o11, o12, o13
      Another ordinary MODELS data card.          |INIT
      Another ordinary MODELS data card.          |  o1:=AnVol
      Another ordinary MODELS data card.          |  o2:=LONG
      Another ordinary MODELS data card.          |  o3:=R0F
      Another ordinary MODELS data card.          |  o4:=R1F
      Another ordinary MODELS data card.          |  o5:=X0F
      Another ordinary MODELS data card.          |  O6:=X1F
      Another ordinary MODELS data card.          |  o7:=RDIVX
      Another ordinary MODELS data card.          |  o8:=RINSER
      Another ordinary MODELS data card.          |  o9:=CLOSE1
      Another ordinary MODELS data card.          |  o10:=RPpos
      Another ordinary MODELS data card.          |  o11:=RPcero
      Another ordinary MODELS data card.          |  o12:=LPpos
      Another ordinary MODELS data card.          |  o13:=LPcero
      Another ordinary MODELS data card.          |
      Another ordinary MODELS data card.          |ENDINIT
      Another ordinary MODELS data card.          |EXEC
      Another ordinary MODELS data card.          |ENDEXEC
      Another ordinary MODELS data card.          |ENDMODEL
      Another ordinary MODELS data card.          |MODEL DEFAULT1
      Another ordinary MODELS data card.          |DATA CPpos,CPcero,Xp,CR,SIMET,ENC1,ENC2,ENC1AS,ENC2AS
      Another ordinary MODELS data card.          |OUTPUT o1, o2, o3, o4, o5, o6, o7, o8, o9
      Another ordinary MODELS data card.          |VAR o1, o2, o3, o4, o5, o6, o7, o8, o9
      Another ordinary MODELS data card.          |INIT
      Another ordinary MODELS data card.          |  o1:=CPpos
      Another ordinary MODELS data card.          |  o2:=CPcero
      Another ordinary MODELS data card.          |  o3:=Xp
      Another ordinary MODELS data card.          |  o4:=CR
      Another ordinary MODELS data card.          |  o5:=SIMET
      Another ordinary MODELS data card.          |  o6:=ENC1
      Another ordinary MODELS data card.          |  o7:=ENC2
      Another ordinary MODELS data card.          |  o8:=ENC1AS
      Another ordinary MODELS data card.          |  o9:=ENC2AS
      Another ordinary MODELS data card.          |
      Another ordinary MODELS data card.          |ENDINIT
      Another ordinary MODELS data card.          |EXEC
      Another ordinary MODELS data card.          |ENDEXEC
      Another ordinary MODELS data card.          |ENDMODEL
      Another ordinary MODELS data card.          |USE DEFAULT AS DEFAULT
      Another ordinary MODELS data card.          |DATA
      Another ordinary MODELS data card.          |  AnVol:=      0.0
      Another ordinary MODELS data card.          |  LONG:= 85.67941
      Another ordinary MODELS data card.          |  R0F:=   2.2199
      Another ordinary MODELS data card.          |  R1F:= 2.044546
      Another ordinary MODELS data card.          |  X0F:= 9.935102
      Another ordinary MODELS data card.          |  X1F:=  9.15031
      Another ordinary MODELS data card.          |  RDIVX:=  0.22344
      Another ordinary MODELS data card.          |  RINSER:=    1.E-6
      Another ordinary MODELS data card.          |  CLOSE1:= 0.047024
      Another ordinary MODELS data card.          |  RPpos:= 0.020784
      Another ordinary MODELS data card.          |  RPcero:= 0.218778
      Another ordinary MODELS data card.          |  LPpos:= 0.280354
      Another ordinary MODELS data card.          |  LPcero:= 0.754046
      Another ordinary MODELS data card.          |OUTPUT
      Another ordinary MODELS data card.          |  AnVol:=o1
      Another ordinary MODELS data card.          |  LONG:=o2
      Another ordinary MODELS data card.          |  R0F:=o3
      Another ordinary MODELS data card.          |  R1F:=o4
      Another ordinary MODELS data card.          |  X0F:=o5
      Another ordinary MODELS data card.          |  X1F:=o6
      Another ordinary MODELS data card.          |  RDIVX:=o7
      Another ordinary MODELS data card.          |  RINSER:=o8
      Another ordinary MODELS data card.          |  CLOSE1:=o9
      Another ordinary MODELS data card.          |  RPpos:=o10
      Another ordinary MODELS data card.          |  RPcero:=o11
      Another ordinary MODELS data card.          |  LPpos:=o12
      Another ordinary MODELS data card.          |  LPcero:=o13
      Another ordinary MODELS data card.          |ENDUSE
      Another ordinary MODELS data card.          |USE DEFAULT1 AS DEF
      Another ordinary MODELS data card.          |DATA
      Another ordinary MODELS data card.          |  CPpos:= 0.010155
      Another ordinary MODELS data card.          |  CPcero:= 0.008945
      Another ordinary MODELS data card.          |  Xp:= 5628.199
      Another ordinary MODELS data card.          |  CR:=  112.564
      Another ordinary MODELS data card.          |  SIMET:=       1.
      Another ordinary MODELS data card.          |  ENC1:=       1.
      Another ordinary MODELS data card.          |  ENC2:=      0.0
      Another ordinary MODELS data card.          |  ENC1AS:=      0.0
      Another ordinary MODELS data card.          |  ENC2AS:=      0.0
      Another ordinary MODELS data card.          |OUTPUT
      Another ordinary MODELS data card.          |  CPpos:=o1
      Another ordinary MODELS data card.          |  CPcero:=o2
      Another ordinary MODELS data card.          |  Xp:=o3
      Another ordinary MODELS data card.          |  CR:=o4
      Another ordinary MODELS data card.          |  SIMET:=o5
      Another ordinary MODELS data card.          |  ENC1:=o6
      Another ordinary MODELS data card.          |  ENC2:=o7
      Another ordinary MODELS data card.          |  ENC1AS:=o8
      Another ordinary MODELS data card.          |  ENC2AS:=o9
      Another ordinary MODELS data card.          |ENDUSE
      Another ordinary MODELS data card.          |RECORD
      Another ordinary MODELS data card.          |  DEFAULT.o1 AS AnVOL
      Another ordinary MODELS data card.          |  DEFAULT.o2 AS LONG
      Another ordinary MODELS data card.          |  DEFAULT.o3 AS R0F
      Another ordinary MODELS data card.          |  DEFAULT.o4 AS R1F
      Another ordinary MODELS data card.          |  DEFAULT.o5 AS X0F
      Another ordinary MODELS data card.          |  DEFAULT.o6 AS X1F
      Another ordinary MODELS data card.          |  DEFAULT.o7 AS RDIVX
      Another ordinary MODELS data card.          |  DEFAULT.o8 AS RINSER
      Another ordinary MODELS data card.          |  DEFAULT.o9 AS CLOSE1
      Another ordinary MODELS data card.          |  DEFAULT.o10 AS RPpos
      Another ordinary MODELS data card.          |  DEFAULT.o11 AS RPcero
      Another ordinary MODELS data card.          |  DEFAULT.o12 AS LPpos
      Another ordinary MODELS data card.          |  DEFAULT.o13 AS LPcero
      Another ordinary MODELS data card.          |  DEF.o1 AS CPpos
      Another ordinary MODELS data card.          |  DEF.o2 AS CPcero
      Another ordinary MODELS data card.          |  DEF.o3 AS Xp
      Another ordinary MODELS data card.          |  DEF.o4 AS CR
      Another ordinary MODELS data card.          |  DEF.o5 AS SIMET
      Another ordinary MODELS data card.          |  DEF.o6 AS ENC1
      Another ordinary MODELS data card.          |  DEF.o7 AS ENC2
      Another ordinary MODELS data card.          |  DEF.o8 AS ENC1AS
      Another ordinary MODELS data card.          |  DEF.o9 AS ENC2AS
Termination of data for Laurent Dube`s MODELS.    |ENDMODELS
Comment card.   NUMDCD = 153.                     |C        1         2         3         4         5         6         7         8
Comment card.   NUMDCD = 154.                     |C 345678901234567890123456789012345678901234567890123456789012345678901234567890
Optional blank card follows last of MODELS data.  |BLANK MODELS
Comment card.   NUMDCD = 156.                     |C < n1 >< n2 ><ref1><ref2>< R  >< L  >< C  >
Comment card.   NUMDCD = 157.                     |C < n1 >< n2 ><ref1><ref2>< R  >< A  >< B  ><Leng><><>0
1st of coupled R-L.   2.21990E+00  3.16244E-02    |51IFUENASB1A              2.21999.9351018579
2nd coil. 2.045E+00 2.913E-02 0.000E+00 0.000E+00 |52IFUENBSB1B              2.04459.1503103041
Zca, Zcc= 5.847E-02 8.327E-04 2.103E+00 2.996E-02 |53IFUENCSB1C
Series R-L-C.   1.000E+09  0.000E+00  0.000E+00   |  SB1A                      1.E9                                               0
Series R-L-C.   1.000E+09  0.000E+00  0.000E+00   |  SB1B                      1.E9                                               0
Series R-L-C.   1.000E+09  0.000E+00  0.000E+00   |  SB1C                      1.E9                                               0
Series R-L-C.   5.628E+01  8.958E+00  0.000E+00   |  RSNSHA                  56.2822814.1                                         0
Series R-L-C.   5.628E+01  8.958E+00  0.000E+00   |  RSNSHB                  56.2822814.1                                         0
Series R-L-C.   5.628E+01  8.958E+00  0.000E+00   |  RSNSHC                  56.2822814.1                                         0
Series R-L-C.   1.000E+09  0.000E+00  0.000E+00   |  RSNNHA                    1.E9                                               0
Series R-L-C.   1.000E+09  0.000E+00  0.000E+00   |  RSNNHB                    1.E9                                               0
Series R-L-C.   1.000E+09  0.000E+00  0.000E+00   |  RSNNHC                    1.E9                                               0
Series R-L-C.   1.000E+09  0.000E+00  0.000E+00   |  SE2A                      1.E9                                               0
Series R-L-C.   1.000E+09  0.000E+00  0.000E+00   |  SE2B                      1.E9                                               0
Series R-L-C.   1.000E+09  0.000E+00  0.000E+00   |  SE2C                      1.E9                                               0
Series R-L-C.   2.500E+02  0.000E+00  3.000E-10   |  X0001B                    250.       .0003                                   0
Series R-L-C.   2.500E+02  0.000E+00  3.000E-10   |  X0002B                    250.       .0003                                   0
Series R-L-C.   1.000E-06  0.000E+00  0.000E+00   |  X0001ALN1A               1.E-6                                               0
Series R-L-C.   1.000E-06  0.000E+00  0.000E+00   |  SB1A  X0002A             1.E-6                                               0
Series R-L-C.   1.000E-06  0.000E+00  0.000E+00   |  X0001BLN1B               1.E-6                                               0
Series R-L-C.   1.000E-06  0.000E+00  0.000E+00   |  SB1B  X0002B             1.E-6                                               0
Series R-L-C.   1.000E-06  0.000E+00  0.000E+00   |  X0001CLN1C               1.E-6                                               0
Series R-L-C.   1.000E-06  0.000E+00  0.000E+00   |  SB1C  X0002C             1.E-6                                               0
Series R-L-C.   1.000E-06  0.000E+00  0.000E+00   |  XX0005X0002A             1.E-6                                               0
Series R-L-C.   1.000E-06  0.000E+00  0.000E+00   |  XX0003X0002B             1.E-6                                               0
Series R-L-C.   1.000E-06  0.000E+00  0.000E+00   |  XX0004X0002C             1.E-6                                               0
Series R-L-C.   2.500E+02  0.000E+00  3.000E-10   |  X0001A                    250.       .0003                                   0
Series R-L-C.   1.000E+06  0.000E+00  0.000E+00   |  X0001AX0002A              1.E6                                               0
Series R-L-C.   1.000E+06  0.000E+00  0.000E+00   |  X0001BX0002B              1.E6                                               0
Series R-L-C.   1.000E+06  0.000E+00  0.000E+00   |  X0001CX0002C              1.E6                                               0
Series R-L-C.   2.500E+02  0.000E+00  3.000E-10   |  X0002C                    250.       .0003                                   0
Series R-L-C.   2.500E+02  0.000E+00  3.000E-10   |  X0002A                    250.       .0003                                   0
Series R-L-C.   2.500E+02  0.000E+00  3.000E-10   |  X0001C                    250.       .0003                                   0
Series R-L-C.   1.250E+02  0.000E+00  6.000E-10   |  X0001AX0002A              125.       .0006                                   0
Series R-L-C.   1.250E+02  0.000E+00  6.000E-10   |  X0001BX0002B              125.       .0006                                   0
Series R-L-C.   1.250E+02  0.000E+00  6.000E-10   |  X0001CX0002C              125.       .0006                                   0
 2.188E-01 7.541E-01 8.950E-03 5.179E+02 3.971E-04|-1LN1A  VFF2A             .21878.75405.0089585.679 0 0                         0
 2.078E-02 2.803E-01 1.016E-02 2.964E+02 2.580E-04|-2LN1B  VFF2B             .02078.28035.0101685.679 0 0                         0
3rd or later transposed distributed phase.        |-3LN1C  VFF2C                                                                  0
Blank card ending branches.  IBR, NTOT = 39  31   |BLANK BRANCH
Comment card.   NUMDCD = 198.                     |C < n 1>< n 2>< Tclose ><Top/Tde ><   Ie   ><Vf/CLOP ><  type  >
Switch.  -1.00E+00  1.00E+01  0.00E+00  0.00E+00  |  LN1A  COMPA        -1.       10.                                             0
Switch.  -1.00E+00  1.00E+01  0.00E+00  0.00E+00  |  LN1B  COMPB        -1.       10.                                             0
Switch.  -1.00E+00  1.00E+01  0.00E+00  0.00E+00  |  LN1C  COMPC        -1.       10.                                             0
Switch.  -1.00E+00  1.00E+01  0.00E+00  0.00E+00  |  VFF2A RSNNHA       -1.       10.                                             0
Switch.  -1.00E+00  1.00E+01  0.00E+00  0.00E+00  |  VFF2B RSNNHB       -1.       10.                                             0
Switch.  -1.00E+00  1.00E+01  0.00E+00  0.00E+00  |  VFF2C RSNNHC       -1.       10.                                             0
Switch.   2.00E+00 -1.00E+00  0.00E+00  0.00E+00  |  VFF2A SE2A          2.       -1.                                             0
Switch.   2.00E+00 -1.00E+00  0.00E+00  0.00E+00  |  VFF2B SE2B          2.       -1.                                             0
Switch.   2.00E+00 -1.00E+00  0.00E+00  0.00E+00  |  VFF2C SE2C          2.       -1.                                             0
Switch.   4.70E-02  1.00E+03  0.00E+00  0.00E+00  |  X0001BXX0003.047023872      1.E3                                             0
Switch.   4.70E-02  1.00E+03  0.00E+00  0.00E+00  |  X0001CXX0004.047023872      1.E3                                             0
Switch.   5.45E-02  1.00E+03  0.00E+00  0.00E+00  |  XX0005X0002A.054523872      1.E3                                             0
Switch.   5.45E-02  1.00E+03  0.00E+00  0.00E+00  |  XX0003X0002B.054523872      1.E3                                             0
Switch.   5.45E-02  1.00E+03  0.00E+00  0.00E+00  |  XX0004X0002C.054523872      1.E3                                             0
Switch.   4.70E-02  1.00E+03  0.00E+00  0.00E+00  |  X0001AXX0005.047023872      1.E3                                             0
Permanently-closed switch used for metering.      |  VFUENAIFUENA                                        MEASURING                1
Permanently-closed switch used for metering.      |  VFUENBIFUENB                                        MEASURING                1
Permanently-closed switch used for metering.      |  VFUENCIFUENC                                        MEASURING                1
Permanently-closed switch used for metering.      |  COMPA RSNSHA                                        MEASURING                1
Permanently-closed switch used for metering.      |  COMPB RSNSHB                                        MEASURING                1
Permanently-closed switch used for metering.      |  COMPC RSNSHC                                        MEASURING                1
Blank card ending switches.   KSWTCH = 21.        |BLANK SWITCH
Comment card.   NUMDCD = 221.                     |C < n 1><>< Ampl.  >< Freq.  ><Phase/T0><   A1   ><   T1   >< TSTART >< TSTOP  >
Source.   4.29E+05  5.00E+01  0.00E+00 -1.00E+00  |14VFUENA  428660.705       50.                                     -1.      100.
Source.   4.29E+05  5.00E+01 -1.20E+02 -1.00E+00  |14VFUENB  428660.705       50.     -120.                           -1.      100.
Source.   4.29E+05  5.00E+01 -2.40E+02 -1.00E+00  |14VFUENC  428660.705       50.     -240.                           -1.      100.
Blank card ends electric sources.  KCONST = 3     |BLANK SOURCE
Pi-equivalent branches of distributed circuits are added to the table of List Size 3 between indices  40   and  45.

Sinusoidal steady-state phasor solution, branch by branch.   All flows are away from a bus,  and the real part,  magnitude,  or  "P"
is printed above the imaginary part,  the angle,  or  "Q".   The first solution frequency  =  5.00000000E+01  Hertz.
  Bus K                        Phasor  node  voltage              Phasor  branch  current               Power flow       Power loss
             Bus M         Rectangular            Polar          Rectangular            Polar            P  and  Q        P  and  Q

 IFUENA                    428660.705       428660.705       .4305329590331  .44586952212911      92276.280872433  .20322292254781
                                  0.0              0.0       .1159353352082       15.0712944      -24848.46126238        0.9095392

            SB1A      428660.88561966     428660.88564      -.4305329590331  .44586952212911      -92276.07764951
                      -4.176539964123       -0.0005582      -.1159353352082     -164.9287056      24849.370801534

 IFUENB                  -214330.3525       428660.705      -.1148635340405  .44586952213085      92276.280873372  .20322292255091
                      -371231.0601341     -120.0000000      -.4308201472923     -104.9287056      -24848.46126033        0.9095392

            SB1B      -214334.0597995     428660.88564      .11486353404046  .44586952213085      -92276.07765045
                      -371229.1282854     -120.0005582      .43082014729226       75.0712944      24849.370799485

 IFUENC                  -214330.3525       428660.705      -.3156694250129  .44586952213211      92276.280872454  .20322292254999
                      371231.06013415      120.0000000      .31488481207955      135.0712944      -24848.46126478        0.9095392

            SB1C      -214326.8258201     428660.88564      .31566942501285  .44586952213211      -92276.07764953
                      371233.30482534      119.9994418      -.3148848120795      -44.9287056      24849.370803931

 SB1A                 428660.88561966     428660.88564      .42866088562E-3  .42866088564E-3      91.875077438836  91.875077438836
                      -4.176539964123       -0.0005582      -.4176539964E-8       -0.0005582      .2572862577E-19        0.0000000

            TERRA                 0.0              0.0      -.4286608856E-3  .42866088564E-3                  0.0
                                  0.0              0.0      .41765399641E-8      179.9994418                  0.0

 SB1B                 -214334.0597995     428660.88564      -.2143340598E-3  .42866088564E-3      91.875077438836  91.875077438836
                      -371229.1282854     -120.0005582      -.3712291283E-3     -120.0005582      -.145022883E-14        0.0000000

            TERRA                 0.0              0.0       .2143340598E-3  .42866088564E-3                  0.0
                                  0.0              0.0      .37122912829E-3       59.9994418                  0.0

 SB1C                 -214326.8258201     428660.88564      -.2143268258E-3  .42866088564E-3      91.875077438836  91.875077438836
                      371233.30482534      119.9994418      .37123330483E-3      119.9994418      -.195676808E-14        0.0000000

            TERRA                 0.0              0.0      .21432682582E-3  .42866088564E-3                  0.0
                                  0.0              0.0      -.3712333048E-3      -60.0005582                  0.0

 RSNSHA               -459.8465307438  5367.8824918642      1.8964563777899  1.9071139040302      102.35116516793  102.35116516793
                      5348.1495505104       94.9143397      .20133715525338        6.0601026      5117.5582583963     5117.5582584

            TERRA                 0.0              0.0       -1.89645637779  1.9071139040302                  0.0
                                  0.0              0.0      -.2013371552534     -173.9398974                  0.0

 RSNSHB                4861.556639352   5367.882491864      -.7738650977198  1.9071139040301      102.35116516792  102.35116516792
                      -2275.835997789      -25.0856603      -1.743047977962     -113.9398974      5117.5582583959     5117.5582584

            TERRA                 0.0              0.0      .77386509771979  1.9071139040301                  0.0
                                  0.0              0.0      1.7430479779617       66.0601026                  0.0

 RSNSHC               -4401.710108608  5367.8824918641       -1.12259128007  1.9071139040302      102.35116516792  102.35116516792
                      -3072.313552722     -145.0856603      1.5417108227083      126.0601026      5117.5582583962     5117.5582584

            TERRA                 0.0              0.0      1.1225912800701  1.9071139040302                  0.0
                                  0.0              0.0      -1.541710822708      -53.9398974                  0.0

 RSNNHA               -460.0517082705  5385.5612993388      -.4600517083E-6  .53855612993E-5      .01450213525447  .01450213525447
                      5365.8757844972       94.9003591      .53658757845E-5       94.9003591      .1048203272E-18        0.0000000

            TERRA                 0.0              0.0      .46005170827E-6  .53855612993E-5                  0.0
                                  0.0              0.0      -.5365875784E-5      -85.0996409                  0.0

 RSNNHB               4877.0105970614  5385.5612993386      .48770105971E-5  .53855612993E-5      .01450213525447  .01450213525447
                      -2284.521425832      -25.0996409      -.2284521426E-5      -25.0996409        .73141295E-18        0.0000000

            TERRA                 0.0              0.0      -.4877010597E-5  .53855612993E-5                  0.0
                                  0.0              0.0      .22845214258E-5      154.9003591                  0.0

 RSNNHC               -4416.958888791  5385.5612993388      -.4416958889E-5  .53855612993E-5      .01450213525447  .01450213525447
                      -3081.354358665     -145.0996409      -.3081354359E-5     -145.0996409      -.100966327E-17        0.0000000

            TERRA                 0.0              0.0      .44169588888E-5  .53855612993E-5                  0.0
                                  0.0              0.0      .30813543587E-5       34.9003591                  0.0

 X0001B               4861.5566392022  5367.8824919024      .21450328533E-3  .50591100592E-3      .31993243238E-4  .31993243238E-4
                        -2275.8359982      -25.0856603      .45818586457E-3       64.9129897      -1.357835415183       -1.3578354

            TERRA                 0.0              0.0      -.2145032853E-3  .50591100592E-3                  0.0
                                  0.0              0.0      -.4581858646E-3     -115.0870103                  0.0

 X0002B               -214334.0597994  428660.88563957      .03498704508385  .04040033666498      .20402340033047  .20402340033047
                      -371229.1282849     -120.0005582      -.0202013335932      -30.0019082      -8659.022045071    -8659.0220451

            TERRA                 0.0              0.0      -.0349870450838  .04040033666498                  0.0
                                  0.0              0.0      .02020133359323      149.9980918                  0.0

 X0001A               -459.8465303131  5367.8824919026      .43063556631751  .43721754046178      103.09078792647  .95579588834E-7
                       5348.149550586       94.9143397      .07557900971733        9.9543583      1168.9290779252              0.0

            LN1A      -459.8465307438  5367.8824918642      -.4306355663175  .43721754046178      -103.0907878309
                      5348.1495505104       94.9143397      -.0755790097173     -170.0456417      -1168.929077925

 SB1A                 428660.88561966     428660.88564      .43009640648961  .44544800126618      92182.511149545  .99211966642E-7
                      -4.176539964123       -0.0005582      .11593533955079       15.0858955      -24849.37082064              0.0

            X0002A    428660.88561923  428660.88563957      -.4300964064896  .44544800126618      -92182.51114945
                      -4.176540080058       -0.0005582      -.1159353395508     -164.9141045      24849.370820643

 X0001B               4861.5566392022  5367.8824919024      -.1498647179687  .43721734496051       103.0897621606   .9557950334E-7
                        -2275.8359982      -25.0856603      -.4107305358048     -110.0456897       1168.928641639              0.0

            LN1B       4861.556639352   5367.882491864      .14986471796874  .43721734496051       -103.089762065
                      -2275.835997789      -25.0856603      .41073053580476       69.9543103      -1168.928641639

 SB1B                 -214334.0597995     428660.88564      -.1146690919995  .44545758538551       92185.72817846  .99216222793E-7
                      -371229.1282854     -120.0005582      -.4304456524551     -104.9169492      -24845.32857475        0.0000000

            X0002B    -214334.0597994  428660.88563957      .11466909199953  .44545758538551      -92185.72817836
                      -371229.1282849     -120.0005582      .43044565245509       75.0830508       24845.32857475

 X0001C               -4401.710108889  5367.8824919025      -.2807701093843  .43721734800934       103.0876293983    .955795047E-7
                      -3072.313552386     -145.0856603      .33515243558213      129.9542057      1168.9288379436        0.0000000

            LN1C      -4401.710108608  5367.8824918641      .28077010938432  .43721734800934      -103.0876293027
                      -3072.313552722     -145.0856603      -.3351524355821      -50.0457943      -1168.928837944

 SB1C                 -214326.8258201     428660.88564      -.3154564183205  .44548523693918      92191.883939327  .99228543604E-7
                      371233.30482534      119.9994418      .31455419957638      135.0820515      -24845.26277895              0.0

            X0002C    -214326.8258198  428660.88563957      .31545641832054  .44548523693918      -92191.88393923
                      371233.30482503      119.9994418      -.3145541995764      -44.9179485      24845.262778952

 XX0005               428660.88561923  428660.88563957                  0.0              0.0                  0.0              0.0
                      -4.176540080058       -0.0005582                  0.0              0.0                  0.0              0.0

            X0002A    428660.88561923  428660.88563957                  0.0              0.0                  0.0
                      -4.176540080058       -0.0005582                  0.0              0.0                  0.0

 XX0003               -214334.0597994  428660.88563957                  0.0              0.0                  0.0              0.0
                      -371229.1282849     -120.0005582                  0.0              0.0                  0.0              0.0

            X0002B    -214334.0597994  428660.88563957                  0.0              0.0                  0.0
                      -371229.1282849     -120.0005582                  0.0              0.0                  0.0

 XX0004               -214326.8258198  428660.88563957                  0.0              0.0                  0.0              0.0
                      371233.30482503      119.9994418                  0.0              0.0                  0.0              0.0

            X0002C    -214326.8258198  428660.88563957                  0.0              0.0                  0.0
                      371233.30482503      119.9994418                  0.0              0.0                  0.0

 X0001A               -459.8465303131  5367.8824919026       -.504052241E-3  .50591100592E-3      .31993243238E-4  .31993243238E-4
                       5348.149550586       94.9143397      -.4332763799E-4     -175.0870103      -1.357835415183       -1.3578354

            TERRA                 0.0              0.0      .50405224104E-3  .50591100592E-3                  0.0
                                  0.0              0.0      .43327637991E-4        4.9129897                  0.0

 X0001A               -459.8465303131  5367.8824919026      -.4291207321495  .42915411002941      112.97736007039  92086.625077569
                       5348.149550586       94.9143397      .00535232609067      179.2853997      -1146.270301105        0.0000000

            X0002A    428660.88561923  428660.88563957      .42912073214954  .42915411002941      91973.647717499
                      -4.176540080058       -0.0005582      -.0053523260907       -0.7146003      1146.2703011054

 X0001B               4861.5566392022  5367.8824919024      .21919561643863  .42915411002941      112.97736007038  92086.625077569
                        -2275.8359982      -25.0856603      .36895329228675       59.2853997      -1146.270301105        0.0000000

            X0002B    -214334.0597994  428660.88563957      -.2191956164386  .42915411002941      91973.647717499
                      -371229.1282849     -120.0005582      -.3689532922867     -120.7146003      1146.2703011054

 X0001C               -4401.710108889  5367.8824919025      .20992511571092  .42915411002941      112.97736007041  92086.625077569
                      -3072.313552386     -145.0856603      -.3743056183774      -60.7146003      -1146.270301105        0.0000000

            X0002C    -214326.8258198  428660.88563957      -.2099251157109  .42915411002941      91973.647717499
                      371233.30482503      119.9994418      .37430561837741      119.2853997      1146.2703011054

 X0002C               -214326.8258198  428660.88563957       -.034988390624  .04040033666498       .2040234003303   .2040234003303
                      371233.30482503      119.9994418      -.0201990030493     -150.0019082      -8659.022045071    -8659.0220451

            TERRA                 0.0              0.0      .03498839062398  .04040033666498                  0.0
                                  0.0              0.0      .02019900304935       29.9980918                  0.0

 X0002A               428660.88561923  428660.88563957       .1345540135E-5  .04040033666498       .2040234003305   .2040234003305
                      -4.176540080058       -0.0005582      .04040033664258       89.9980918      -8659.022045071    -8659.0220451

            TERRA                 0.0              0.0      -.1345540135E-5  .04040033666498                  0.0
                                  0.0              0.0      -.0404003366426      -90.0019082                  0.0

 X0001C               -4401.710108889  5367.8824919025       .2895489557E-3  .50591100592E-3      .31993243238E-4  .31993243238E-4
                      -3072.313552386     -145.0856603      -.4148582266E-3      -55.0870103      -1.357835415183       -1.3578354

            TERRA                 0.0              0.0      -.2895489557E-3  .50591100592E-3                  0.0
                                  0.0              0.0      .41485822658E-3      124.9129897                  0.0

 X0001A               -459.8465303131  5367.8824919026      -.0010107955623  .08089364393712      -216.0663595301  .40898635183913
                       5348.149550586       94.9143397      -.0808873285611      -90.7159503       -21.3008216088   -17357.9198806

            X0002A    428660.88561923  428660.88563957      .00101079556234  .08089364393712      216.47534588191
                      -4.176540080058       -0.0005582      .08088732856113       89.2840497      -17336.61905901

 X0001B               4861.5566392022  5367.8824919024       -.069545083597  .08089364393712      -216.0663595301  .40898635183872
                        -2275.8359982      -25.0856603      .04131903891559      149.2840497       -21.3008216088   -17357.9198806

            X0002B    -214334.0597994  428660.88563957      .06954508359703  .08089364393712       216.4753458819
                      -371229.1282849     -120.0005582      -.0413190389156      -30.7159503      -17336.61905901

 X0001C               -4401.710108889  5367.8824919025      .07055587915937  .08089364393712      -216.0663595301  .40898635183871
                      -3072.313552386     -145.0856603      .03956828964555       29.2840497      -21.30082160881   -17357.9198806

            X0002C    -214326.8258198  428660.88563957      -.0705558791594  .08089364393712       216.4753458819
                      371233.30482503      119.9994418      -.0395682896455     -150.7159503      -17336.61905901

 LN1A                 -459.8465307438  5367.8824918642      -1.465820786536  1.4712055918194      .73744815237438  .72294601710196
                      5348.1495505104       94.9143397      -.1257589565744     -175.0963609      -3948.629300267    -3948.6293003

            VFF2A     -460.0517082705  5385.5612993388      .46005169743E-6   .5385561306E-5      -.0145021352724
                      5365.8757844972       94.9003591      -.5365875792E-5      -85.0996410      -.308411921E-10

 LN1B                  4861.556639352   5367.882491864      .62399994212128  1.4712055918193       .7374481523853  .72294601709952
                      -2275.835997789      -25.0856603      1.3323175168229       64.9036391      -3948.629300267    -3948.6293003

            VFF2B     4877.0105970614  5385.5612993386      -.4877010593E-5   .5385561311E-5      -.0145021352858
                      -2284.521425832      -25.0996409      .22845214609E-5      154.9003588      -.895981595E-10

 LN1C                 -4401.710108608  5367.8824918641      .84182084441505  1.4712055918194      .73744815236793  .72294601709825
                      -3072.313552722     -145.0856603      -1.206558560249      -55.0963609      -3948.629300267    -3948.6293003

            VFF2C     -4416.958888791  5385.5612993388      .44169588998E-5   .5385561305E-5      -.0145021352697
                      -3081.354358665     -145.0996409      .30813543528E-5       34.9003590       -.29901501E-10
     Total network loss  P-loss  by summing injections =   2.768327374972E+05

Output for steady-state phasor switch currents.
      Node-K    Node-M            I-real            I-imag            I-magn          Degrees        Power            Reactive
      LN1A      COMPA         1.89645632E+00    2.01338668E-01    1.90711400E+00       6.0601    1.02355226E+02    5.11755844E+03
      LN1B      COMPB        -7.73864727E-01   -1.74304797E+00    1.90711374E+00    -113.9399    1.02352054E+02    5.11755781E+03
      LN1C      COMPC        -1.12259084E+00    1.54171074E+00    1.90711358E+00     126.0601    1.02350315E+02    5.11755739E+03
      VFF2A     RSNNHA       -4.60051708E-07    5.36587580E-06    5.38556131E-06      94.9004    1.45021353E-02    4.53460208E-12
      VFF2B     RSNNHB        4.87701061E-06   -2.28452146E-06    5.38556133E-06     -25.0996    1.45021353E-02    5.54031327E-11
      VFF2C     RSNNHC       -4.41695889E-06   -3.08135437E-06    5.38556131E-06    -145.0996    1.45021353E-02   -2.00897450E-11
      VFF2A     SE2A              Open              Open              Open             Open          Open              Open
      VFF2B     SE2B              Open              Open              Open             Open          Open              Open
      VFF2C     SE2C              Open              Open              Open             Open          Open              Open
      X0001B    XX0003            Open              Open              Open             Open          Open              Open
      X0001C    XX0004            Open              Open              Open             Open          Open              Open
      XX0005    X0002A            Open              Open              Open             Open          Open              Open
      XX0003    X0002B            Open              Open              Open             Open          Open              Open
      XX0004    X0002C            Open              Open              Open             Open          Open              Open
      X0001A    XX0005            Open              Open              Open             Open          Open              Open
      VFUENA    IFUENA        4.30532959E-01    1.15935335E-01    4.45869522E-01      15.0713    9.22762809E+04   -2.48484613E+04
      VFUENB    IFUENB       -1.14863534E-01   -4.30820147E-01    4.45869522E-01    -104.9287    9.22762809E+04   -2.48484613E+04
      VFUENC    IFUENC       -3.15669425E-01    3.14884812E-01    4.45869522E-01     135.0713    9.22762809E+04   -2.48484613E+04
      COMPA     RSNSHA        1.89645632E+00    2.01338668E-01    1.90711400E+00       6.0601    1.02355226E+02    5.11755844E+03
      COMPB     RSNSHB       -7.73864727E-01   -1.74304797E+00    1.90711374E+00    -113.9399    1.02352054E+02    5.11755781E+03
      COMPC     RSNSHC       -1.12259084E+00    1.54171074E+00    1.90711358E+00     126.0601    1.02350315E+02    5.11755739E+03

Solution at nodes with known voltage.   Nodes that are shorted together by switches are shown as a group of names, with the printed
result applying to the composite group.   The entry "MVA" is  SQRT( P**2 + Q**2 )  in units of power,  while  "P.F."  is the
associated power factor.
              Node                Source  node  voltage             Injected  source  current              Injected  source  power
              name         Rectangular            Polar          Rectangular            Polar            P  and  Q    MVA and P.F.

               VFUENA
              IFUENA       428660.705       428660.705      .43053295903196  .44586952212809      92276.280872188  95563.371846719
                                  0.0              0.0      .11593533520853       15.0712944      -24848.46126245        0.9656030

               VFUENB
              IFUENB     -214330.3525       428660.705      -.1148635340366  .44586952212977      92276.280872941   95563.37184708
                      -371231.0601341     -120.0000000      -.4308201472922     -104.9287056      -24848.46126104        0.9656030

               VFUENC
              IFUENC     -214330.3525       428660.705      -.3156694250104  .44586952213042      92276.280872206   95563.37184722
                      371231.06013415      120.0000000      .31488481207964      135.0712944      -24848.46126431        0.9656030

  +++  Node  "COMPC "  has no connected linear branches.  Add (to ground) the conductance  G = 1.00000000E-18  mhos.
  +++  Node  "COMPB "  has no connected linear branches.  Add (to ground) the conductance  G = 1.00000000E-18  mhos.
  +++  Node  "COMPA "  has no connected linear branches.  Add (to ground) the conductance  G = 1.00000000E-18  mhos.
Card of names for time-step loop output.          |  LN1A  LN1B  LN1C  COMPA COMPB COMPC SB1A  SB1B  SB1C  SE2A  SE2B  SE2C  VFF2A
Card of names for time-step loop output.          |  VFF2B VFF2C IFUENAIFUENBIFUENC
Card of names for time-step loop output.          |-5VFF2A VFF2B VFF2B VFF2C VFF2C VFF2A LN1A  LN1B  LN1B  LN1C  LN1C  LN1A
Card of names for time-step loop output.          |-5SB1A  SB1B  SB1B  SB1C  SB1C  SB1A
Blank card ending requests for output variables.  |BLANK OUTPUT

Column headings for the  55   EMTP output variables follow.  These are divided among the 5 possible classes as follows ....
  First  27     output variables are electric-network voltage differences (upper voltage minus lower voltage);
  Next   6     output variables are branch currents (flowing from the upper node to the lower node);
  Next   22     output variables belong to MODELS (with "MODELS" an internally-added upper name of pair).
   Step      Time      LN1A       LN1B       LN1C       COMPA      COMPB      COMPC      SB1A       SB1B       SB1C       SE2A
 

                       SE2B       SE2C       VFF2A      VFF2B      VFF2C      IFUENA     IFUENB     IFUENC     VFF2A      VFF2B
                                                                                                               VFF2B      VFF2C

                       VFF2C      LN1A       LN1B       LN1C       SB1A       SB1B       SB1C       VFUENA     VFUENB     VFUENC
                       VFF2A      LN1B       LN1C       LN1A       SB1B       SB1C       SB1A       IFUENA     IFUENB     IFUENC

                       COMPA      COMPB      COMPC      MODELS     MODELS     MODELS     MODELS     MODELS     MODELS     MODELS
                       RSNSHA     RSNSHB     RSNSHC     ANVOL      LONG       R0F        R1F        X0F        X1F        RDIVX

                       MODELS     MODELS     MODELS     MODELS     MODELS     MODELS     MODELS     MODELS     MODELS     MODELS
                       RINSER     CLOSE1     RPPOS      RPCERO     LPPOS      LPCERO     CPPOS      CPCERO     XP         CR

                       MODELS     MODELS     MODELS     MODELS     MODELS
                       SIMET      ENC1       ENC2       ENC1AS     ENC2AS
 ***      Phasor I(0) =  1.8964563E+00                     Switch  "LN1A  "  to  "COMPA "  closed in the steady-state.
 ***      Phasor I(0) = -7.7386473E-01                     Switch  "LN1B  "  to  "COMPB "  closed in the steady-state.
 ***      Phasor I(0) = -1.1225908E+00                     Switch  "LN1C  "  to  "COMPC "  closed in the steady-state.
 ***      Phasor I(0) = -4.6005171E-07                     Switch  "VFF2A "  to  "RSNNHA"  closed in the steady-state.
 ***      Phasor I(0) =  4.8770106E-06                     Switch  "VFF2B "  to  "RSNNHB"  closed in the steady-state.
 ***      Phasor I(0) = -4.4169589E-06                     Switch  "VFF2C "  to  "RSNNHC"  closed in the steady-state.
 ***      Phasor I(0) =  4.3053296E-01                     Switch  "VFUENA"  to  "IFUENA"  closed in the steady-state.
 ***      Phasor I(0) = -1.1486353E-01                     Switch  "VFUENB"  to  "IFUENB"  closed in the steady-state.
 ***      Phasor I(0) = -3.1566943E-01                     Switch  "VFUENC"  to  "IFUENC"  closed in the steady-state.
 ***      Phasor I(0) =  1.8964563E+00                     Switch  "COMPA "  to  "RSNSHA"  closed in the steady-state.
 ***      Phasor I(0) = -7.7386473E-01                     Switch  "COMPB "  to  "RSNSHB"  closed in the steady-state.
 ***      Phasor I(0) = -1.1225908E+00                     Switch  "COMPC "  to  "RSNSHC"  closed in the steady-state.
      0       0.0  -459.84653 4861.55664 -4401.7101 -459.84653 4861.55664 -4401.7101 428660.886 -214334.06 -214326.83        0.0
                          0.0        0.0 -460.05171  4877.0106 -4416.9589 428660.705 -214330.35 -214330.35 -5337.0623 9293.96949
                   -3956.9072 -5321.4032 9263.26675 -3941.8636 642994.945 -7.2339794 -642987.71 .430532959 -.11486353 -.31566943
                   1.89645632 -.77386473 -1.1225908        0.0   85.67941     2.2199   2.044546   9.935102    9.15031     .22344
                        .1E-5    .047024    .020784    .218778    .280354    .754046    .010155    .008945   5628.199    112.564
                          1.0        1.0        0.0        0.0        0.0
    500     .5E-3  -1290.8183 5157.72141 -3866.9035 -1290.8183 5157.72141 -3866.9035  423384.01 -153622.22 -269761.78        0.0
                          0.0        0.0 -1293.7879 5174.33806  -3880.559  423383.18 -153618.26 -269764.92 -6468.1259  9054.8971
                   -2586.7712 -6448.5397 9024.62487 -2576.0851 577006.228 116139.566 -693145.79 .407188525 -.04607101 -.36110142
                    1.8416119 -.49166518 -1.3499468        0.0   85.67941     2.2199   2.044546   9.935102    9.15031     .22344
                        .1E-5    .047024    .020784    .218778    .280354    .754046    .010155    .008945   5628.199    112.564
                          1.0        1.0        0.0        0.0        0.0
   1000     .1E-2  -2090.0095 5326.88728 -3236.8787 -2090.0095 5326.88728 -3236.8787 407682.018 -89127.678  -318554.3        0.0
                          0.0        0.0 -2095.6835 5344.26956 -3248.5866 407680.557 -89123.572 -318556.98 -7439.9531 8592.85613
                    -1152.903 -7416.8968 8563.76599 -1146.8692 496809.696 229426.624 -726236.32 .373738774 .023877426 -.39759726
                   1.74142083 -.19735795 -1.5440625        0.0   85.67941     2.2199   2.044546   9.935102    9.15031     .22344
                        .1E-5    .047024    .020784    .218778    .280354    .754046    .010155    .008945   5628.199    112.564
                          1.0        1.0        0.0        0.0        0.0
   1500     .0015  -2837.7403 5364.88928 -2527.1484 -2837.7403 5364.88928 -2527.1484 381941.542 -22438.549 -359502.99        0.0
                          0.0        0.0 -2845.9735 5382.60377 -2536.6282 381939.485 -22434.368 -359505.12 -8228.5773   7919.232
                   309.345322 -8202.6296 7892.03773 310.591845 404380.091 337064.445 -741444.54 .331046309 .093244376 -.42428578
                   1.59834999 .101808571 -1.7001583        0.0   85.67941     2.2199   2.044546   9.935102    9.15031     .22344
                        .1E-5    .047024    .020784    .218778    .280354    .754046    .010155    .008945   5628.199    112.564
                          1.0        1.0        0.0        0.0        0.0
   2000      .002  -3515.5838   5270.785 -1755.2003 -3515.5838   5270.785 -1755.2003 346796.404 44803.0984 -391599.52        0.0
                          0.0        0.0 -3526.1607 5288.39416 -1762.2232 346793.795 44807.2448 -391601.04 -8814.5549 7050.61738
                   1763.93751 -8786.3688 7025.98529 1760.38354 301993.306  436402.62 -738395.93 .280218833 .160311205 -.44053584
                    1.4159227 .398467495 -1.8143902        0.0   85.67941     2.2199   2.044546   9.935102    9.15031     .22344
                        .1E-5    .047024    .020784    .218778    .280354    .754046    .010155    .008945   5628.199    112.564
                          1.0        1.0        0.0        0.0        0.0
   2500     .0025  -4106.8745 5046.89871 -940.02761 -4106.8745 5046.89871 -940.02761 303111.961 110941.568 -414053.53        0.0
                          0.0        0.0 -4119.5594 5063.97136 -944.41208 303108.891 110945.554 -414054.45 -9183.5307 6008.38344
                   3175.14728 -9153.7732 5986.92632  3166.8469 192170.393 524995.102 -717165.49 .222523506 .223419382 -.44595968
                   1.19863042 .685315814 -1.8839461        0.0   85.67941     2.2199   2.044546   9.935102    9.15031     .22344
                        .1E-5    .047024    .020784    .218778    .280354    .754046    .010155    .008945   5628.199    112.564
                          1.0        1.0        0.0        0.0        0.0
   3000      .003  -4597.0387 4698.74395 -101.70501 -4597.0387 4698.74395 -101.70501 251963.925 174348.273  -426312.2        0.0
                          0.0        0.0  -4611.493 4714.85029 -103.36068 251960.441 174352.016 -426312.46 -9326.3433 4818.21097
                   4508.13232 -9295.7826 4800.44896 4495.33365 77615.6518 600660.473 -678276.13 .159315226 .281041493 -.44037599
                   .951824322 .955289271  -1.907113        0.0   85.67941     2.2199   2.044546   9.935102    9.15031     .22344
                        .1E-5    .047024    .020784    .218778    .280354    .754046    .010155    .008945   5628.199    112.564
                          1.0        1.0        0.0        0.0        0.0
   3500     .0035  -4974.0002 4234.88628 739.114873 -4974.0002 4234.88628 739.114873 194611.701 233461.951 -428073.64        0.0
                          0.0        0.0 -4989.8978 4249.64451 740.253819 194607.888 233465.353 -428073.24 -9239.5424 3509.39069
                   5730.15167 -9208.8865  3495.7714 5713.11505 -38850.251 661535.589 -622685.34 .092196298 .331738373 -.42395781
                   .681580854 1.20174023 -1.8833204        0.0   85.67941     2.2199   2.044546   9.935102    9.15031     .22344
                        .1E-5    .047024    .020784    .218778    .280354    .754046    .010155    .008945   5628.199    112.564
                          1.0        1.0        0.0        0.0        0.0
   4000      .004  -5228.4971 3666.75418 1561.74124 -5228.4971 3666.75418 1561.74124 132467.466 286827.012 -419294.49        0.0
                          0.0        0.0 -5245.4067 3679.78725 1565.62074 132463.443 286829.997 -419293.44 -8925.1939 2114.16651
                   6811.02741 -8895.2513 2105.01294 6790.23834 -154359.55 706121.499 -551761.95 .022807086 .374264067 -.39710367
                    .39455419 1.41859988 -1.8131542        0.0   85.67941     2.2199   2.044546   9.935102    9.15031     .22344
                        .1E-5    .047024    .020784    .218778    .280354    .754046    .010155    .008945   5628.199    112.564
                          1.0        1.0        0.0        0.0        0.0
   4500     .0045  -5354.2398 3008.33249  2345.9075 -5354.2398 3008.33249  2345.9075 67061.4582 333129.443 -400190.91        0.0
                          0.0        0.0 -5371.7919 3019.33342 2352.45999 67057.3081 333131.936 -400189.24 -8391.1253 666.873427
                    7724.2519 -8362.5723 662.424997 7700.14727 -266067.99 733320.357 -467252.37 -.04714361 .407575614 -.36046972
                   .097812416 1.60052934 -1.6983422        0.0   85.67941     2.2199   2.044546   9.935102    9.15031     .22344
                        .1E-5    .047024    .020784    .218778    .280354    .754046    .010155    .008945   5628.199    112.564
                          1.0        1.0        0.0        0.0        0.0
   5000      .005  -5348.1547 2275.83789  3072.3152 -5348.1547 2275.83789  3072.3152 4.17690458  371229.13  -371233.3        0.0
                          0.0        0.0 -5365.8673 2284.51938 3081.34764 -.45661E-7  371231.06 -371231.06 -7650.3867 -796.82826
                   8447.21492 -7623.9926 -796.47731 8420.46993 -371224.95 742462.433 -371237.48 -.11593576 .430852176 -.31495821
                   -.20133772 1.74304857  -1.541711        0.0   85.67941     2.2199   2.044546   9.935102    9.15031     .22344
                        .1E-5    .047024    .020784    .218778    .280354    .754046    .010155    .008945   5628.199    112.564
                          1.0        1.0        0.0        0.0        0.0
   5500     .0055  -5210.3678 1487.30181  3723.0661 -5210.3678 1487.30181  3723.0661 -67053.205 400187.915 -333134.71        0.0
                          0.0        0.0  -5227.858 1493.46723 3734.38946 -67057.308 400189.244 -333131.94 -6721.3253 -2240.9222
                   8962.24749 -6697.6696 -2235.7643 8933.43392 -467241.12 733322.622  -266081.5 -.18187281 .443519785 -.26169139
                   -.49552944 1.84264809 -1.3471181        0.0   85.67941     2.2199   2.044546   9.935102    9.15031     .22344
                        .1E-5    .047024    .020784    .218778    .280354    .754046    .010155    .008945   5628.199    112.564
                          1.0        1.0        0.0        0.0        0.0
   6000      .006  -4944.2963 662.147191 4282.15026 -4944.2963 662.147191 4282.15026 -132459.53 419292.751 -286833.22        0.0
                          0.0        0.0 -4961.0777 665.627592 4295.45174 -132463.44  419293.44   -286830. -5626.7053 -3629.8242
                   9256.52948 -5606.4435 -3620.0031 9226.44658 -551752.28 706125.969 -154373.69 -.24332665 .445264995 -.20198381
                   -.77752034 1.89687538 -1.1193549        0.0   85.67941     2.2199   2.044546   9.935102    9.15031     .22344
                        .1E-5    .047024    .020784    .218778    .280354    .754046    .010155    .008945   5628.199    112.564
                          1.0        1.0        0.0        0.0        0.0
   6500     .0065  -4556.4694 -179.31652 4735.78544 -4556.4694 -179.31652 4735.78544 -194604.25 428073.196 -233468.96        0.0
                          0.0        0.0  -4572.182 -178.58894 4750.77183 -194607.89  428073.24 -233465.35  -4393.593 -4929.3608
                   9322.95379 -4377.1529  -4915.102 9292.25487 -622677.44 661542.158 -38864.717 -.29879799 .436048267 -.13729821
                    -1.040366 1.90439536 -.86402857        0.0   85.67941     2.2199   2.044546   9.935102    9.15031     .22344
                        .1E-5    .047024    .020784    .218778    .280354    .754046    .010155    .008945   5628.199    112.564
                          1.0        1.0        0.0        0.0        0.0
   7000      .007  -4056.4571 -1016.3605 5072.81763 -4056.4571 -1016.3605 5072.81763 -251957.18 426313.074  -174355.9        0.0
                          0.0        0.0 -4070.6705 -1018.4195 5089.09028 -251960.44 426312.457 -174352.02  -3052.251 -6107.5098
                   9159.76073 -3040.0967 -6089.1781 9129.27478 -678270.25 600668.977 77601.2721   -.346902 .416091744 -.06923766
                   -1.2775946 1.86502286 -.58742828        0.0   85.67941     2.2199   2.044546   9.935102    9.15031     .22344
                        .1E-5    .047024    .020784    .218778    .280354    .754046    .010155    .008945   5628.199    112.564
                          1.0        1.0        0.0        0.0        0.0
   7500     .0075  -3456.5506 -1828.3825 5284.93261 -3456.5506 -1828.3825 5284.93261 -303106.06   414055.7 -110949.64        0.0
                          0.0        0.0 -3468.9348 -1833.1702 5302.10461 -303108.89 414054.446 -110945.55 -1635.7646 -7135.2748
                   8771.03937 -1628.1681 -7113.3152 8741.48321 -717161.76  525005.34 192156.416 -.38647429 .385893429 .534724E-3
                   -1.4833648 1.77972731 -.29636273        0.0   85.67941     2.2199   2.044546   9.935102    9.15031     .22344
                        .1E-5    .047024    .020784    .218778    .280354    .754046    .010155    .008945   5628.199    112.564
                          1.0        1.0        0.0        0.0        0.0
   8000      .008  -2771.5449 -2595.3808 5366.92154 -2771.5449 -2595.3808 5366.92154 -346791.49 391602.907 -44811.412        0.0
                          0.0        0.0 -2781.7942 -2602.7784 5384.57122  -346793.8  391601.04 -44807.245 -179.01578 -7987.3496
                    8166.3654 -176.16407 -7962.3024 8138.46644  -738394.4 436414.319 301980.081 -.41651888 .346189149 .070286403
                    -1.652609 1.65060865 .002000041        0.0   85.67941     2.2199   2.044546   9.935102    9.15031     .22344
                        .1E-5    .047024    .020784    .218778    .280354    .754046    .010155    .008945   5628.199    112.564
                          1.0        1.0        0.0        0.0        0.0
   8500     .0085  -2018.2806 -3298.4732 5316.75466 -2018.2806 -3298.4732 5316.75466 -381937.74  359507.54 22430.1996        0.0
                          0.0        0.0 -2026.1482 -3308.2984 5334.44843 -381939.48 359505.117 22434.3679 1282.15018 -8642.7468
                   7360.59664 1280.19267 -8615.2279 7335.03522 -741445.28  337077.34  404367.94 -.43631986 .297964859 .138315585
                    -1.781161 1.48084691   .3003144        0.0   85.67941     2.2199   2.044546   9.935102    9.15031     .22344
                        .1E-5    .047024    .020784    .218778    .280354    .754046    .010155    .008945   5628.199    112.564
                          1.0        1.0        0.0        0.0        0.0
   9000      .009  -1215.3321 -3920.3447 5135.67641 -1215.3321 -3920.3447 5135.67641 -407679.45 318559.914 89119.5269        0.0
                          0.0        0.0 -1220.6114 -3932.3592 5152.97113 -407680.56 318556.985  89123.572 2711.74787 -9085.3304
                   6373.58248 2705.01264 -9056.0211  6351.0085 -726239.36 229440.388 496798.976 -.44536446 .242398795  .20293002
                   -1.8658547 1.27462161 .591233492        0.0   85.67941     2.2199   2.044546   9.935102    9.15031     .22344
                        .1E-5    .047024    .020784    .218778    .280354    .754046    .010155    .008945   5628.199    112.564
                          1.0        1.0        0.0        0.0        0.0
   9500     .0095  -382.44669 -4445.6876 4828.13417 -382.44669 -4445.6876 4828.13417  -423382.7 269768.279 153614.416        0.0
                          0.0        0.0 -385.01978 -4459.5917 4844.61152 -423383.18 269764.922 153618.258 4074.57193 -9304.2032
                    5229.6313  4063.2409 -9273.8218 5210.58086 -693150.97 116153.862 576997.112 -.44345577 .180868848 .262556542
                   -1.9046049  1.0370113 .867594298        0.0   85.67941     2.2199   2.044546   9.935102    9.15031     .22344
                        .1E-5    .047024    .020784    .218778    .280354    .754046    .010155    .008945   5628.199    112.564
                          1.0        1.0        0.0        0.0        0.0
  10000       .01  459.844345 -4861.5587  4401.7149 459.844345 -4861.5587  4401.7149 -428660.89 214334.065 214326.833        0.0
                          0.0        0.0 460.052877 -4877.0132 4416.96262 -428660.71 214330.353 214330.352 5337.06608 -9293.9758
                   3956.90975 5321.40309 -9263.2736 3941.87056 -642994.96 7.23195017 642987.727 -.43061464 .114880882 .315709581
                   -1.8964573 .773865195 1.12259186        0.0   85.67941     2.2199   2.044546   9.935102    9.15031     .22344
                        .1E-5    .047024    .020784    .218778    .280354    .754046    .010155    .008945   5628.199    112.564
                          1.0        1.0        0.0        0.0        0.0
  10500     .0105  1290.82446 -5157.7276 3866.90135 1290.82446 -5157.7276 3866.90135   -423384. 153622.219 269761.784        0.0
                          0.0        0.0 1293.79767 -5174.3488 3880.55043 -423383.18 153618.258 269764.922 6468.14652 -9054.8993
                   2586.75276  6448.5521  -9024.629 2576.07689 -577006.22 -116139.56 693145.786 -.40718232 .046068882 .361097368
                   -1.8416127 .491664773 1.34994757        0.0   85.67941     2.2199   2.044546   9.935102    9.15031     .22344
                        .1E-5    .047024    .020784    .218778    .280354    .754046    .010155    .008945   5628.199    112.564
                          1.0        1.0        0.0        0.0        0.0
  11000      .011   2090.0072 -5326.8895 3236.88293  2090.0072 -5326.8895 3236.88293 -407682.03 89127.6979 318554.329        0.0
                          0.0        0.0 2095.68333 -5344.2719 3248.59013 -407680.56  89123.572 318556.985 7439.95524  -8592.862
                    1152.9068  7416.8967 -8563.7724 1146.87573 -496809.73 -229426.63 726236.358 -.37371321 -.02388206 .397585657
                   -1.7414214 .197358189 1.54406352        0.0   85.67941     2.2199   2.044546   9.935102    9.15031     .22344
                        .1E-5    .047024    .020784    .218778    .280354    .754046    .010155    .008945   5628.199    112.564
                          1.0        1.0        0.0        0.0        0.0
  11500     .0115  2837.74249 -5364.8925  2527.1497 2837.74249 -5364.8925  2527.1497 -381941.54 22438.5439 359502.986        0.0
                          0.0        0.0 2845.96995  -5382.604 2536.63441 -381939.48 22434.3679 359505.117   8228.574 -7919.2385
                   -309.33554 8202.63499 -7892.0422 -310.59279 -404380.08 -337064.44 741444.521 -.33105158 -.09324163 .424290359
                   -1.5983507 -.10180806   1.700159        0.0   85.67941     2.2199   2.044546   9.935102    9.15031     .22344
                        .1E-5    .047024    .020784    .218778    .280354    .754046    .010155    .008945   5628.199    112.564
                          1.0        1.0        0.0        0.0        0.0
  12000      .012  3515.58537 -5270.7872 1755.20208 3515.58537 -5270.7872 1755.20208  -346796.4 -44803.108 391599.509        0.0
                          0.0        0.0  3526.1736 -5288.3962 1762.22255  -346793.8 -44807.245  391601.04  8814.5698 -7050.6187
                   -1763.9511 8786.37254 -7025.9893 -1760.3833  -301993.3 -436402.62 738395.913 -.28023069 -.16030729 .440543369
                   -1.4159232 -.39846785 1.81439141        0.0   85.67941     2.2199   2.044546   9.935102    9.15031     .22344
                        .1E-5    .047024    .020784    .218778    .280354    .754046    .010155    .008945   5628.199    112.564
                          1.0        1.0        0.0        0.0        0.0
  12500     .0125  4106.88166 -5046.9044 940.022683 4106.88166 -5046.9044 940.022683 -303111.97 -110941.57 414053.537        0.0
                          0.0        0.0 4119.55819  -5063.973 944.414048 -303108.89 -110945.55 414054.446 9183.53123 -6008.3871
                   -3175.1441  9153.7861 -5986.9271  -3166.859  -192170.4  -524995.1 717165.504 -.22251439 -.22342469 .445951062
                   -1.1986312 -.68531679 1.88394721        0.0   85.67941     2.2199   2.044546   9.935102    9.15031     .22344
                        .1E-5    .047024    .020784    .218778    .280354    .754046    .010155    .008945   5628.199    112.564
                          1.0        1.0        0.0        0.0        0.0
  13000      .013  4597.03507 -4698.7441 101.708292 4597.03507 -4698.7441 101.708292 -251963.93 -174348.27   426312.2        0.0
                          0.0        0.0  4611.4981 -4714.8549  103.35643 -251960.44 -174352.02 426312.457 9326.35303 -4818.2114
                   -4508.1417 9295.77918 -4800.4524 -4495.3268 -77615.654 -600660.47 678276.128 -.15931729 -.28104031 .440377909
                   -.95182438 -.95528982 1.90711406        0.0   85.67941     2.2199   2.044546   9.935102    9.15031     .22344
                        .1E-5    .047024    .020784    .218778    .280354    .754046    .010155    .008945   5628.199    112.564
                          1.0        1.0        0.0        0.0        0.0
  13500     .0135  4974.00752 -4234.8888  -739.1183 4974.00752 -4234.8888  -739.1183 -194611.69 -233461.95 428073.641        0.0
                          0.0        0.0 4989.89609 -4249.6438  -740.2511 -194607.89 -233465.35  428073.24 9239.53984 -3509.3926
                   -5730.1472 9208.89631 -3495.7705 -5713.1258 38850.2527 -661535.59 622685.335 -.09219599 -.33173716 .423959237
                   -.68158079 -1.2017412  1.8833214        0.0   85.67941     2.2199   2.044546   9.935102    9.15031     .22344
                        .1E-5    .047024    .020784    .218778    .280354    .754046    .010155    .008945   5628.199    112.564
                          1.0        1.0        0.0        0.0        0.0
  14000      .014  5228.50027 -3666.7563 -1561.7444 5228.50027 -3666.7563 -1561.7444 -132467.47 -286827.02  419294.48        0.0
                          0.0        0.0  5245.4177 -3679.7907 -1565.6274 -132463.44   -286830.  419293.44 8925.20836 -2114.1633
                    -6811.045 8895.25654 -2105.0119 -6790.2446 154359.551  -706121.5 551761.946 -.02280854 -.37426409 .397103989
                   -.39455425  -1.418601 1.81315502        0.0   85.67941     2.2199   2.044546   9.935102    9.15031     .22344
                        .1E-5    .047024    .020784    .218778    .280354    .754046    .010155    .008945   5628.199    112.564
                          1.0        1.0        0.0        0.0        0.0
  14500     .0145  5354.23763 -3008.3308 -2345.9061 5354.23763 -3008.3308 -2345.9061  -67061.47 -333129.44 400190.915        0.0
                          0.0        0.0 5371.78647 -3019.3303 -2352.4561 -67057.308 -333131.94 400189.244  8391.1168 -666.87422
                   -7724.2426  8362.5684 -662.42468 -7700.1437 266067.974 -733320.36 467252.385 .047145156 -.40757647 .360468302
                   -.09781236 -1.6005306 1.69834269        0.0   85.67941     2.2199   2.044546   9.935102    9.15031     .22344
                        .1E-5    .047024    .020784    .218778    .280354    .754046    .010155    .008945   5628.199    112.564
                          1.0        1.0        0.0        0.0        0.0
  % % % % % %   Suspended simulation;  plot data space exhausted;  SPY SPACE is required.   LIMBUF =  840000.
  % % % % % %   Suspended simulation;  plot data space exhausted;  SPY SPACE is required.   LIMBUF =  840000.
  +++  Time-sharing disabled.   Send  user-keyed interrupt to silence alarm.
   Current values.  INDBUF  INDBEG  LIMBUF  MFLUSH  NUMDCD  KCARD1  KCARD2
                    839994      50  840000    1000     230       1     231
Plot timespan now in memory (in sec) = 0.00000000E+00   1.49990000E-02
   ++++  Begin plot-data copy from memory to disk.   MFLUSH, INDBUF, N4, Tbeg,  Tend = 1001  839994       1  -1.00000E+00
1.00000E+19
  15000      .015  5348.16382 -2275.8407 -3072.3232 5348.16382 -2275.8407 -3072.3232 -4.1709618 -371229.13 371233.302        0.0
                          0.0        0.0 5365.87931  -2284.523 -3081.3572 -.61533E-6 -371231.06  371231.06 7650.40228  796.83426
                   -8447.2365 7624.00454 796.482505  -8420.487 371224.958 -742462.43 371237.473 .115935915 -.43085256 .314957718
                   .201337728 -1.7430496 1.54171196        0.0   85.67941     2.2199   2.044546   9.935102    9.15031     .22344
                        .1E-5    .047024    .020784    .218778    .280354    .754046    .010155    .008945   5628.199    112.564
                          1.0        1.0        0.0        0.0        0.0
  15500     .0155  5210.37411 -1487.3031 -3723.0724 5210.37411 -1487.3031 -3723.0724  67053.214 -400187.92 333134.702        0.0
                          0.0        0.0 5227.84928 -1493.4648  -3734.388 67057.3081 -400189.24 333131.936 6721.31405 2240.92319
                   -8962.2372 6697.67722 2235.76928 -8933.4465 467241.131 -733322.62 266081.488 .181870604 -.44351867 .261693284
                   .495530562  -1.842649 1.34711893        0.0   85.67941     2.2199   2.044546   9.935102    9.15031     .22344
                        .1E-5    .047024    .020784    .218778    .280354    .754046    .010155    .008945   5628.199    112.564
                          1.0        1.0        0.0        0.0        0.0
  16000      .016  4944.29757 -662.14552 -4282.1525 4944.29757 -662.14552 -4282.1525 132459.528 -419292.75 286833.222        0.0
                          0.0        0.0 4961.09094 -665.62909 -4295.4612 132463.443 -419293.44 286829.997 5626.72003 3629.83212
                   -9256.5521  5606.4431 3620.00697 -9226.4501 551752.276 -706125.97 154373.694 .243329326 -.44526527  .20198286
                   .777521165 -1.8968764 1.11935492        0.0   85.67941     2.2199   2.044546   9.935102    9.15031     .22344
                        .1E-5    .047024    .020784    .218778    .280354    .754046    .010155    .008945   5628.199    112.564
                          1.0        1.0        0.0        0.0        0.0
  16500     .0165  4556.47141  179.31773 -4735.7893 4556.47141  179.31773 -4735.7893 194604.245  -428073.2 233468.955        0.0
                          0.0        0.0 4572.17437 178.594476 -4750.7687 194607.888 -428073.24 233465.353  4393.5799 4929.36322
                   -9322.9431 4377.15368 4915.10704 -9292.2607 622677.447 -661542.16 38864.7104 .298795425 -.43604777 .137299418
                   1.04036754 -1.9043963 .864028808        0.0   85.67941     2.2199   2.044546   9.935102    9.15031     .22344
                        .1E-5    .047024    .020784    .218778    .280354    .754046    .010155    .008945   5628.199    112.564
                          1.0        1.0        0.0        0.0        0.0
  17000      .017  4056.45774  1016.3629 -5072.8204 4056.45774  1016.3629 -5072.8204  251957.17 -426313.07 174355.905        0.0
                          0.0        0.0 4070.67664 1018.42024 -5089.0971 251960.441 -426312.46 174352.016  3052.2564 6107.51731
                   -9159.7737 3040.09485 6089.18334 -9129.2782 678270.244 -600668.98 -77601.266 .346904182 -.41609279 .069235877
                   1.27759557 -1.8650236 .587427518        0.0   85.67941     2.2199   2.044546   9.935102    9.15031     .22344
                        .1E-5    .047024    .020784    .218778    .280354    .754046    .010155    .008945   5628.199    112.564
                          1.0        1.0        0.0        0.0        0.0
  17500     .0175  3456.55123 1828.38395 -5284.9372 3456.55123 1828.38395 -5284.9372 303106.063  -414055.7 110949.638        0.0
                          0.0        0.0 3468.94126 1833.17021 -5302.1127 303108.891 -414054.45 110945.554 1635.77105 7135.28295
                    -8771.054 1628.16728 7113.32114 -8741.4884 717161.763 -525005.34 -192156.42 .386471426 -.38589263 -.53309E-3
                   1.48336557 -1.7797279 .296362221        0.0   85.67941     2.2199   2.044546   9.935102    9.15031     .22344
                        .1E-5    .047024    .020784    .218778    .280354    .754046    .010155    .008945   5628.199    112.564
                          1.0        1.0        0.0        0.0        0.0
  18000      .018  2771.54309 2595.38243 -5366.9257 2771.54309 2595.38243 -5366.9257 346791.488 -391602.91 44811.4155        0.0
                          0.0        0.0 2781.79642 2602.77985 -5384.5764 346793.795 -391601.04 44807.2448 179.016573 7987.35628
                   -8166.3729 176.160665 7962.30808 -8138.4687 738394.393 -436414.32 -301980.07 .416521998 -.34619005 -.07028823
                   1.65261034 -1.6506094 -.00200111        0.0   85.67941     2.2199   2.044546   9.935102    9.15031     .22344
                        .1E-5    .047024    .020784    .218778    .280354    .754046    .010155    .008945   5628.199    112.564
                          1.0        1.0        0.0        0.0        0.0
  18500     .0185   2018.2808 3298.47673  -5316.757  2018.2808 3298.47673  -5316.757 381937.747 -359507.54 -22430.203        0.0
                          0.0        0.0 2026.14502 3308.30362 -5334.4479 381939.485 -359505.12 -22434.368 -1282.1586  8642.7515
                   -7360.5929 -1280.1959 8615.23374 -7335.0378 741445.289 -337077.34 -404367.95  .43631694 -.29796345 -.13831318
                    1.7811619 -1.4808472 -.30031472        0.0   85.67941     2.2199   2.044546   9.935102    9.15031     .22344
                        .1E-5    .047024    .020784    .218778    .280354    .754046    .010155    .008945   5628.199    112.564
                          1.0        1.0        0.0        0.0        0.0
  19000      .019  1215.33046 3920.34798 -5135.6786 1215.33046 3920.34798 -5135.6786 407679.439 -318559.92 -89119.525        0.0
                          0.0        0.0 1220.61381 3932.36158 -5152.9753 407680.557 -318556.98 -89123.572 -2711.7478 9085.33691
                   -6373.5891 -2705.0175 9056.02655  -6351.009 726239.354 -229440.39 -496798.96 .445367548 -.24240017 -.20293242
                   1.86585569 -1.2746218 -.59123366        0.0   85.67941     2.2199   2.044546   9.935102    9.15031     .22344
                        .1E-5    .047024    .020784    .218778    .280354    .754046    .010155    .008945   5628.199    112.564
                          1.0        1.0        0.0        0.0        0.0
  19500     .0195  382.446232 4445.69099 -4828.1361 382.446232 4445.69099 -4828.1361 423382.704 -269768.28 -153614.42        0.0
                          0.0        0.0 385.016752 4459.59677 -4844.6108  423383.18 -269764.92 -153618.26   -4074.58 9304.20758
                   -5229.6276 -4063.2448 9273.82709 -5210.5823 693150.985 -116153.86 -576997.13 .443452253 -.18086785  -.2625545
                   1.90460571 -1.0370109 -.86759457        0.0   85.67941     2.2199   2.044546   9.935102    9.15031     .22344
                        .1E-5    .047024    .020784    .218778    .280354    .754046    .010155    .008945   5628.199    112.564
                          1.0        1.0        0.0        0.0        0.0
  20000       .02  -459.84693 4861.56318 -4401.7146 -459.84693 4861.56318 -4401.7146 428660.887 -214334.06 -214326.82        0.0
                          0.0        0.0 -460.05322 4877.01715 -4416.9635 428660.705 -214330.35 -214330.35 -5337.0704 9293.98062
                   -3956.9102 -5321.4101 9263.27777 -3941.8677 642994.947  -7.234724 -642987.71 .430617957 -.11488204 -.31571176
                   1.89645804 -.77386515 -1.1225924        0.0   85.67941     2.2199   2.044546   9.935102    9.15031     .22344
                        .1E-5    .047024    .020784    .218778    .280354    .754046    .010155    .008945   5628.199    112.564
                          1.0        1.0        0.0        0.0        0.0
  20500     .0205  -1290.8254 5157.72915 -3866.9043 -1290.8254 5157.72915 -3866.9043 423384.011 -153622.22 -269761.79        0.0
                          0.0        0.0  -1293.799 5174.35064 -3880.5529  423383.18 -153618.26 -269764.92 -6468.1496 9054.90358
                    -2586.754 -6448.5546 9024.63345 -2576.0789 577006.234 116139.568  -693145.8 .407179574  -.0460674 -.36109492
                   1.84161325 -.49166437 -1.3499488        0.0   85.67941     2.2199   2.044546   9.935102    9.15031     .22344
                        .1E-5    .047024    .020784    .218778    .280354    .754046    .010155    .008945   5628.199    112.564
                          1.0        1.0        0.0        0.0        0.0
  21000      .021  -2090.0126 5326.89391 -3236.8805 -2090.0126 5326.89391 -3236.8805 407682.019 -89127.695 -318554.32        0.0
                          0.0        0.0 -2095.6897 5344.27705 -3248.5866 407680.557 -89123.572 -318556.98 -7439.9668 8592.86365
                   -1152.8969 -7416.9065 8563.77439 -1146.8679 496809.713 229426.628 -726236.34 .373716135 .023881275  -.3975873
                   1.74142176 -.19735709 -1.5440644        0.0   85.67941     2.2199   2.044546   9.935102    9.15031     .22344
[...]
                        .1E-5    .047024    .020784    .218778    .280354    .754046    .010155    .008945   5628.199    112.564
                          1.0        1.0        0.0        0.0        0.0
 113000      .113  -223976.52 -220023.62  444000.15 -223976.52 -220023.62  444000.15 -223976.52 -220023.62  444000.15        0.0
                          0.0        0.0 -179637.82 -292539.77 472177.592 -251960.44 -174352.02 426312.457 112901.955 -764717.36
                    651815.41  -3952.898 -664023.78 667976.673 -3952.8985 -664023.77 667976.673 -149.21084 118.075085 31.1357552
                   -203.95768 125.526605 78.4310729        0.0   85.67941     2.2199   2.044546   9.935102    9.15031     .22344
                        .1E-5    .047024    .020784    .218778    .280354    .754046    .010155    .008945   5628.199    112.564
                          1.0        1.0        0.0        0.0        0.0
 113500     .1135  -188737.55 -241534.97 430272.524 -188737.55 -241534.97 430272.524 -188737.55 -241534.97 430272.524        0.0
                          0.0        0.0 -246822.31 -140635.31 387457.627 -194607.89 -233465.35  428073.24   -106187. -528092.94
                   634279.938 52797.4154 -671807.49 619010.077 52797.4148 -671807.49 619010.077 -177.14927 97.3516116 79.7976616
                   -215.66673 113.781622 101.885075        0.0   85.67941     2.2199   2.044546   9.935102    9.15031     .22344
                        .1E-5    .047024    .020784    .218778    .280354    .754046    .010155    .008945   5628.199    112.564
                          1.0        1.0        0.0        0.0        0.0
 114000      .114  -88535.702 -365024.99 453560.693 -88535.702 -365024.99 453560.693 -88535.702 -365024.99 453560.694        0.0
                          0.0        0.0 -122778.98 -315368.09 438147.077 -132463.44   -286830.  419293.44 192589.108 -753515.17
                    560926.06 276489.286 -818585.68 542096.395 276489.287 -818585.68 542096.396 66.7924772 -281.31595 214.523475
                   -224.91196 100.143804 124.768165        0.0   85.67941     2.2199   2.044546   9.935102    9.15031     .22344
                        .1E-5    .047024    .020784    .218778    .280354    .754046    .010155    .008945   5628.199    112.564
                          1.0        1.0        0.0        0.0        0.0
 114500     .1145  -18122.278 -411088.23 429210.503 -18122.278 -411088.23 429210.503 -18122.279 -411088.23 429210.503        0.0
                          0.0        0.0 -15952.491 -412770.87 428723.355 -67057.308 -333131.94 400189.244 396818.377 -841494.22
                   444675.846 392965.952 -840298.73 447332.781  392965.95 -840298.73 447332.782 -308.80151 362.628734 -53.827227
                   -228.54837 80.4296327  148.11873        0.0   85.67941     2.2199   2.044546   9.935102    9.15031     .22344
                        .1E-5    .047024    .020784    .218778    .280354    .754046    .010155    .008945   5628.199    112.564
                          1.0        1.0        0.0        0.0        0.0
 115000      .115  -12708.133 -347940.86 360648.995 -12708.133 -347940.86 360648.995 -12708.133 -347940.86 360648.995        0.0
                          0.0        0.0 -41205.069 -302844.09 344049.158 .127058E-4 -371231.06  371231.06 261639.021 -646893.25
                   385254.227 335232.728 -708589.86 373357.127 335232.728 -708589.86 373357.128 -173.11939 71.3037963 101.815591
                   -230.11398   61.42718 168.686782        0.0   85.67941     2.2199   2.044546   9.935102    9.15031     .22344
                        .1E-5    .047024    .020784    .218778    .280354    .754046    .010155    .008945   5628.199    112.564
                          1.0        1.0        0.0        0.0        0.0
 115500     .1155   82008.255 -427791.54 345783.283  82008.255 -427791.54 345783.283  82008.255 -427791.54 345783.283        0.0
                          0.0        0.0 127773.377 -511943.15 384169.766 67057.3081 -400189.24 333131.936 639716.522 -896112.91
                   256396.389 509799.794 -773574.82 263775.028 509799.795 -773574.82 263775.028 12.5858384 -193.11309  180.52725
                   -228.12291 40.5772261 187.545741        0.0   85.67941     2.2199   2.044546   9.935102    9.15031     .22344
                        .1E-5    .047024    .020784    .218778    .280354    .754046    .010155    .008945   5628.199    112.564
                          1.0        1.0        0.0        0.0        0.0
 116000      .116  144541.369 -435162.44 290621.067 144541.369 -435162.44 290621.067 144541.368 -435162.44 290621.067        0.0
                          0.0        0.0 161289.811 -456719.42 295429.611 132463.443 -419293.44 286829.997 618009.236 -752149.04
                     134139.8 579703.807  -725783.5 146079.698 579703.806  -725783.5 146079.699 -289.79076 304.337334 -14.546577
                   -220.83793 15.9449268 204.893004        0.0   85.67941     2.2199   2.044546   9.935102    9.15031     .22344
                        .1E-5    .047024    .020784    .218778    .280354    .754046    .010155    .008945   5628.199    112.564
                          1.0        1.0        0.0        0.0        0.0
 116500     .1165  189824.329 -421733.15 231908.825 189824.329 -421733.15 231908.825 189824.329 -421733.15 231908.826        0.0
                          0.0        0.0 132208.852 -325352.63 193143.787 194607.888 -428073.24 233465.353 457561.487 -518496.42
                   60934.9348 611557.479 -653641.98  42084.496  611557.48 -653641.98 42084.4965 -24.627853 -181.28115 205.909007
                    -211.8497 -6.2037749 218.053474        0.0   85.67941     2.2199   2.044546   9.935102    9.15031     .22344
                        .1E-5    .047024    .020784    .218778    .280354    .754046    .010155    .008945   5628.199    112.564
                          1.0        1.0        0.0        0.0        0.0
 117000      .117  291400.693 -494675.52 203274.821 291400.693 -494675.52 203274.821 291400.693 -494675.52 203274.821        0.0
                          0.0        0.0 280982.847 -479080.27 198097.421 251960.441 -426312.46 174352.016  760063.12 -677177.69
                   -82885.426 786076.211 -697950.34 -88125.872 786076.212 -697950.34 -88125.872 -25.135704 -120.11889 145.254593
                   -198.71758  -30.21028 228.927892        0.0   85.67941     2.2199   2.044546   9.935102    9.15031     .22344
                        .1E-5    .047024    .020784    .218778    .280354    .754046    .010155    .008945   5628.199    112.564
                          1.0        1.0        0.0        0.0        0.0
 117500     .1175  303190.141 -409075.52 105885.379 303190.141 -409075.52 105885.379 303190.141 -409075.52 105885.379        0.0
                          0.0        0.0 268637.863 -345207.71 76569.8432 303108.891 -414054.45 110945.554 613845.572 -421777.55
                   -192068.02 712265.663  -514960.9 -197304.76 712265.662  -514960.9 -197304.76 -312.14262 331.723153 -19.580531
                    -181.6413 -55.064223  236.70549        0.0   85.67941     2.2199   2.044546   9.935102    9.15031     .22344
                        .1E-5    .047024    .020784    .218778    .280354    .754046    .010155    .008945   5628.199    112.564
                          1.0        1.0        0.0        0.0        0.0
 118000      .118  316015.803 -341400.68 25384.8788 316015.803 -341400.68 25384.8788 316015.803 -341400.68 25384.8792        0.0
                          0.0        0.0 293933.411  -310003.7 16070.2916 346793.795 -391601.04 44807.2447 603937.114 -326073.99
                   -277863.12 657416.487 -366785.56 -290630.92 657416.487 -366785.56 -290630.92 .526227822 -210.13394 209.607712
                    -163.9225 -75.631496 239.553985        0.0   85.67941     2.2199   2.044546   9.935102    9.15031     .22344
                        .1E-5    .047024    .020784    .218778    .280354    .754046    .010155    .008945   5628.199    112.564
                          1.0        1.0        0.0        0.0        0.0
 118500     .1185  377334.906  -351192.6 -26142.303 377334.906  -351192.6 -26142.303 377334.905  -351192.6 -26142.302        0.0
                          0.0        0.0 432508.489 -444896.87 12388.3804 381939.485 -359505.12 -22434.368  877405.36 -457285.25
                   -420120.11  728527.51  -325050.3 -403477.21  728527.51  -325050.3 -403477.21 -91.891124 .220556043 91.6705654
                   -142.76265 -97.024149 239.786779        0.0   85.67941     2.2199   2.044546   9.935102    9.15031     .22344
                        .1E-5    .047024    .020784    .218778    .280354    .754046    .010155    .008945   5628.199    112.564
                          1.0        1.0        0.0        0.0        0.0
 119000      .119  363677.269 -241106.49 -122570.77 363677.269 -241106.49 -122570.77 363677.268 -241106.49 -122570.77        0.0
                          0.0        0.0 360583.792 -229260.67 -131323.11 407680.557 -318556.98 -89123.572 589844.462 -97937.556
                   -491906.91 604783.756 -118535.71 -486248.04 604783.756 -118535.71 -486248.04 -199.16483 136.952463 62.2123715
                   -119.89434 -116.11658 236.010905        0.0   85.67941     2.2199   2.044546   9.935102    9.15031     .22344
                        .1E-5    .047024    .020784    .218778    .280354    .754046    .010155    .008945   5628.199    112.564
                          1.0        1.0        0.0        0.0        0.0
 119500     .1195  395982.122 -228130.16 -167851.96 395982.122 -228130.16 -167851.96 395982.122 -228130.16 -167851.96        0.0
                          0.0        0.0 377184.312 -198882.32 -178301.99  423383.18 -269764.92 -153618.26 576066.628 -20580.324
                    -555486.3 624112.283 -60278.203 -563834.08 624112.284 -60278.205 -563834.08  134.87018 -409.91612 275.045939
                   -97.390745  -130.3913 227.781982        0.0   85.67941     2.2199   2.044546   9.935102    9.15031     .22344
                        .1E-5    .047024    .020784    .218778    .280354    .754046    .010155    .008945   5628.199    112.564
                          1.0        1.0        0.0        0.0        0.0
  % % % % % %   Suspended simulation;  plot data space exhausted;  SPY SPACE is required.   LIMBUF =  840000.
  % % % % % %   Suspended simulation;  plot data space exhausted;  SPY SPACE is required.   LIMBUF =  840000.
  +++  Time-sharing disabled.   Send  user-keyed interrupt to silence alarm.
   Current values.  INDBUF  INDBEG  LIMBUF  MFLUSH  NUMDCD  KCARD1  KCARD2
                    839994      50  840000    1007     230       1     231
Plot timespan now in memory (in sec) = 1.04985997E-01   1.19985000E-01
   ++++  Begin plot-data copy from memory to disk.   MFLUSH, INDBUF, N4, Tbeg,  Tend = 1008  839994       1  -1.00000E+00
1.00000E+19
 120000       .12  449973.133 -249762.14 -200210.99 449973.133 -249762.14 -200210.99 449973.133 -249762.14 -200210.99        0.0
                          0.0        0.0 442813.845 -232306.52 -210507.32 428660.705 -214330.35 -214330.35 675120.366 -21799.204
                   -653321.16 699735.273 -49551.151 -650184.12 699735.273 -49551.151 -650184.12 -101.80979  34.781375 67.0284167
                   -72.527502  -144.9213   217.4488        0.0   85.67941     2.2199   2.044546   9.935102    9.15031     .22344
                        .1E-5    .047024    .020784    .218778    .280354    .754046    .010155    .008945   5628.199    112.564
                          1.0        1.0        0.0        0.0        0.0

Extrema of output variables follow.   Order and column positioning are the same as for the preceding time-step loop output.
Variable maxima :   552479.45  718078.39 539809.735  552479.45  718078.39 539809.735 552479.451 718078.392 539809.735        0.0
                          0.0        0.0 705292.923 995631.081 636170.154 428660.705 428660.703 428660.703 .1507168E7 .1293094E7
                   832586.322 .1196084E7 .1049083E7 796229.496 .1196084E7 .1049083E7 796229.497 896.539803 1699.83004 821.256029
                   69.5422944  140.64514 283.317001        0.0   85.67941     2.2199   2.044546   9.935102    9.15031     .22344
                        .1E-5    .047024    .020784    .218778    .280354    .754046    .010155    .008945   5628.199    112.564
                          1.0        1.0        0.0        0.0        0.0
Times of maxima :      .05959    .047637    .052625     .05959    .047637    .052625     .05959    .047637    .052625        0.0
                          0.0        0.0    .059692    .047848    .054115        0.0    .006667    .113333    .056787    .047846
                        .0522    .058233     .06449     .05201    .058233     .06449     .05201    .048164    .048812    .050829
                      .104991    .111275    .058409        0.0        0.0        0.0        0.0        0.0        0.0        0.0
                          0.0        0.0        0.0        0.0        0.0        0.0        0.0        0.0        0.0        0.0
                          0.0        0.0        0.0        0.0        0.0
Variable minima :  -574096.22 -665994.78 -536728.01 -574096.22 -665994.78 -536728.01 -574096.22 -665994.78 -536728.01        0.0
                          0.0        0.0 -785670.06 -967192.88 -603873.06 -428660.71  -428660.7  -428660.7 -.169429E7 -.148814E7
                   -831199.85 -.120993E7 -.107083E7 -775522.44 -.120993E7 -.107083E7 -775522.44 -1118.9728 -1661.8451 -586.63187
                    -270.0634 -172.86152 -58.874958        0.0   85.67941     2.2199   2.044546   9.935102    9.15031     .22344
                        .1E-5    .047024    .020784    .218778    .280354    .754046    .010155    .008945   5628.199    112.564
                          1.0        1.0        0.0        0.0        0.0
Times of minima :     .050649    .056933    .063209    .050649    .056933    .063209    .050649    .056933    .063209        0.0
                          0.0        0.0    .050525    .056785    .062975        .01    .016667    .103333    .047849    .054118
                      .061143    .047641    .055306    .061243    .047641    .055306    .061243    .048823    .049483    .048798
                      .055065    .061425    .108318        0.0        0.0        0.0        0.0        0.0        0.0        0.0
                          0.0        0.0        0.0        0.0        0.0        0.0        0.0        0.0        0.0        0.0
                          0.0        0.0        0.0        0.0        0.0

Blank card terminating all plot cards.            |BLANK PLOT

Memory storage figures for the preceding, now-completed data case.  -------------------------------  Present   Program
A value of  "-9999"  indicates that no figure is available.         28-Feb-22  19:04:12              figure     limit  (name)
     Size List 1.   Number of electric network nodes.                                                   37      6000  (LBUS)
     Size List 2.   Number of electric network branches.                                                39     10000  (LBRNCH)
     Size List 3.   Number of data values in R, L, C tables.                                            45    192000  (LDATA)
     Size List 4.   Number of electric network sources.                                                  3       900  (LEXCT)
     Size List 5.   Storage for [Y] and triangularized [Y].   No. times =    3     Factors =    66     189    420000  (LYMAT)
     Size List 6.   Number of entries in switch table.                  No. flops = 18                  21      1200  (LSWTCH)
     Size List 7.   Number of distinct ALPHANUMERIC data names plus program SPY variables.              25     15000  (LSIZE7)
     Size List 8.   History points of distributed lines.                                               917    120000  (LPAST)
     Size List 9.   Number of nonlinear elements.                                                        0      2250  (LNONL)
     Size List 10.  Points of nonlinear characteristics.                                                 0      3800  (LCHAR)
     Size List 11.  Number of Type-59 S.M. outputs.                                                      0       720  (LSMOUT)
     Size List 12.  Total number of EMTP output variables.                                              55      2000  (LSIZ12)
     Size List 13.  Working space for batch/SPY plotting.                                            -9999     72800  (LSIZ13)
     Size List 14.  S.M./U.M. connections to TACS.                                                   -9999       510  (LBSTAC)
     Size List 15.  Character storage in bytes for MODELS.                                            3294     90000  (LCTACS)
     Size List 16.  Total number of Type-59 S.M. masses.                                                 0       800  (LIMASS)
     Size List 17.  Number of Type-59 Synchronous machines.                                              0        90  (LSYN)
     Size List 18.  Branch and switch power/energy outputs.                                              0       254  (MAXPE)
     Size List 19.  Total floating-point TACS table space.                                              23    120000  (LTACST)
     Size List 20.  Non-copied recursive convolution data.                                               0    100000  (LFSEM)
     Size List 21.  Total modal/phase [T] matrix storage.                                                9      3000  (LFD)
     Size List 22.  Total recursive convolution history.                                                 0     15000  (LHIST)
     Size List 23.  Giant vectors for renumbering, phasors;  also extrema accumulation.                  93    192000  (LSIZ23)
     Size List 24.  Peak phases of compensation for data.                                                0       120  (LCOMP)
     Size List 25.  Total table space for all U.M usage.                                             -9999     45000  (LSPCUM)
     Size List 26.  Square of max number of coupled phases.                                              9    260000  (LSIZ26)
     Size List 27.  Maximum number of MODELS top variables.                                             44       600  (LSIZ27)
     Size List 28.  MODELS.  Total work space is divided into INTEGER and REAL.  1st, REAL:           1780    210000  (LRTACS)
                             Second  and last,  statistics for INTEGER work space.                    6838         0  (LITACS)
     Size List 29.  RAM disk used by "TAPSAV" table saving (limit is "LABCOM" size LTLABL).          -9999       600  (LSIZ29)
     Size List 30.  Taku Noda frequency-dependent circuits.                                              0        19  (LSIZ30)
Timing figures characterizing central processor (CP) solution speed.  ----------------------------   CP sec  Wait sec  Real sec
     Data input time (through blank card ending branches) ....                                       0.016     0.000     0.016
     Node renumbering and phasor solution  ....                                                      0.047     0.000     0.047
     After phasor solution, but before time-step loop  ....                                          0.016     0.000     0.016
     Integration of equations (time-step loop)  ....                                                 0.875     0.000     0.875
     Plotting or STATISTICS termination overlays ....                                                0.000     0.000     0.000
                                                                                                    ---------------------------
                                                                                          Totals      0.953     0.000     0.953

