   ---   236   cards of disk file read into card cache cells  1   onward.
 Comment card is ignored.      |C   LBUS  LBRNCH   LDATA   LEXCT   LYMAT  LSWTCH
 Limit CIDEAL cards =   200    |CARDS        200 { Limit of CIDEAL will be 2 mor
 1st card (Lists  1-10).       |    6000   10000  192000     900  420000    120
 Comment card is ignored.      |C LSMOUT  LSIZ12  LSIZ13  LBSTAC  LCTACS  LIMASS
 2nd card (Lists 11-20).       |     720    2000   72800     510   90000     80
 Comment card is ignored.      |C    LFD   LHIST  LSIZ23   NCOMP  LSPCUM  LSIZ26
 3rd card (Lists 21-30).       |    3000   15000  192000     120   45000  26000
 4th card (Lists 31-32).       |     200     300     { Optional card for Lists
 Comment card is ignored.      |C  LWORK  LMARTI
 Supplemental offsets.         |  840000     742
 <===> Done with  "/"-card sorting by data class.    Remember that the source file appears different from interpreted input data.
Alternative Transients Program (ATP),  GNU Linux or DOS.  All rights reserved by Can/Am user group of Portland, Oregon, USA.
 Date (dd-mth-yy) and time of day (hh.mm.ss) = 28-Feb-22  20:48:32   Name of disk plot file is  p\bdfinalisima\energizacion3779.pl4
Consult the 860-page ATP Rule Book of the Can/Am EMTP User Group in Portland,  Oregon, USA.  Source code date is 12 August 2008.
Total size of LABCOM tables = 10913436 INTEGER words.  31 VARDIM  List Sizes follow:  6002  10K  192K  900  420K  1200  15K
  120K  2250  3800  720  2K  72800  510  90K  800  90  254  120K  100K  3K  15K  192K  120  45K  260K  600  210K  1100  60  200
--------------------------------------------------+--------------------------------------------------------------------------------
Descriptive interpretation of input data cards.   |  Input data card images are shown below, all 80 columns, character by character
                                                  0         1         2         3         4         5         6         7         8
                                                  012345678901234567890123456789012345678901234567890123456789012345678901234567890
--------------------------------------------------+--------------------------------------------------------------------------------
Comment card.   NUMDCD = 1.                       |C data:D:\ATP\BDFINALISIMA\ENERGIZACION3779.ATP
Marker card preceding new EMTP data case.         |BEGIN NEW DATA CASE
Comment card.   NUMDCD = 3.                       |C --------------------------------------------------------
Comment card.   NUMDCD = 4.                       |C Generated by ATPDRAW  febrero, lunes 28, 2022
Comment card.   NUMDCD = 5.                       |C A Bonneville Power Administration program
Comment card.   NUMDCD = 6.                       |C by H. K. Høidalen at SEfAS/NTNU - NORWAY 1994-2016
Comment card.   NUMDCD = 7.                       |C --------------------------------------------------------
Comment card.   NUMDCD = 8.                       |C  dT  >< Tmax >< Xopt >< Copt ><Epsiln>
Misc. data.     1.000E-06   1.200E-01   5.000E+01 |   1.E-6     .12     50.
Misc. data.    500    1  0  1  1  0  0  0  0  0   |     500       1       0       1       1       0       0       0       0
  ///  Warning.  Nonzero XOPT or COPT differs from the power frequency of  6.00000000E+01  Hz.   Did the user really want this?
No TACS data,  but MODELS data begins (next).     |MODELS
      Another ordinary MODELS data card.          |OUTPUT
      Another ordinary MODELS data card.          |  AnVol
      Another ordinary MODELS data card.          |  LONG
      Another ordinary MODELS data card.          |  R0F
      Another ordinary MODELS data card.          |  R1F
      Another ordinary MODELS data card.          |  X0F
      Another ordinary MODELS data card.          |  X1F
      Another ordinary MODELS data card.          |  RDIVX
      Another ordinary MODELS data card.          |  RINSER
      Another ordinary MODELS data card.          |  CLOSE1
      Another ordinary MODELS data card.          |  RPpos
      Another ordinary MODELS data card.          |  RPcero
      Another ordinary MODELS data card.          |  LPpos
      Another ordinary MODELS data card.          |  LPcero
      Another ordinary MODELS data card.          |  CPpos
      Another ordinary MODELS data card.          |  CPcero
      Another ordinary MODELS data card.          |  Xp
      Another ordinary MODELS data card.          |  CR
      Another ordinary MODELS data card.          |  SIMET
      Another ordinary MODELS data card.          |  ENC1
      Another ordinary MODELS data card.          |  ENC2
      Another ordinary MODELS data card.          |  ENC1AS
      Another ordinary MODELS data card.          |  ENC2AS
      Another ordinary MODELS data card.          |MODEL DEFAULT
      Another ordinary MODELS data card.          |DATA AnVol,LONG,R0F,R1F,X0F,X1F,RDIVX,RINSER,CLOSE1,RPpos,RPcero,LPpos,LPcero
      Another ordinary MODELS data card.          |OUTPUT o1,o2,o3, o4, o5, o6, o7, o8, o9, o10, o11, o12, o13
      Another ordinary MODELS data card.          |VAR o1,o2,o3, o4, o5, o6, o7, o8, o9, o10, o11, o12, o13
      Another ordinary MODELS data card.          |INIT
      Another ordinary MODELS data card.          |  o1:=AnVol
      Another ordinary MODELS data card.          |  o2:=LONG
      Another ordinary MODELS data card.          |  o3:=R0F
      Another ordinary MODELS data card.          |  o4:=R1F
      Another ordinary MODELS data card.          |  o5:=X0F
      Another ordinary MODELS data card.          |  O6:=X1F
      Another ordinary MODELS data card.          |  o7:=RDIVX
      Another ordinary MODELS data card.          |  o8:=RINSER
      Another ordinary MODELS data card.          |  o9:=CLOSE1
      Another ordinary MODELS data card.          |  o10:=RPpos
      Another ordinary MODELS data card.          |  o11:=RPcero
      Another ordinary MODELS data card.          |  o12:=LPpos
      Another ordinary MODELS data card.          |  o13:=LPcero
      Another ordinary MODELS data card.          |
      Another ordinary MODELS data card.          |ENDINIT
      Another ordinary MODELS data card.          |EXEC
      Another ordinary MODELS data card.          |ENDEXEC
      Another ordinary MODELS data card.          |ENDMODEL
      Another ordinary MODELS data card.          |MODEL DEFAULT1
      Another ordinary MODELS data card.          |DATA CPpos,CPcero,Xp,CR,SIMET,ENC1,ENC2,ENC1AS,ENC2AS
      Another ordinary MODELS data card.          |OUTPUT o1, o2, o3, o4, o5, o6, o7, o8, o9
      Another ordinary MODELS data card.          |VAR o1, o2, o3, o4, o5, o6, o7, o8, o9
      Another ordinary MODELS data card.          |INIT
      Another ordinary MODELS data card.          |  o1:=CPpos
      Another ordinary MODELS data card.          |  o2:=CPcero
      Another ordinary MODELS data card.          |  o3:=Xp
      Another ordinary MODELS data card.          |  o4:=CR
      Another ordinary MODELS data card.          |  o5:=SIMET
      Another ordinary MODELS data card.          |  o6:=ENC1
      Another ordinary MODELS data card.          |  o7:=ENC2
      Another ordinary MODELS data card.          |  o8:=ENC1AS
      Another ordinary MODELS data card.          |  o9:=ENC2AS
      Another ordinary MODELS data card.          |
      Another ordinary MODELS data card.          |ENDINIT
      Another ordinary MODELS data card.          |EXEC
      Another ordinary MODELS data card.          |ENDEXEC
      Another ordinary MODELS data card.          |ENDMODEL
      Another ordinary MODELS data card.          |USE DEFAULT AS DEFAULT
      Another ordinary MODELS data card.          |DATA
      Another ordinary MODELS data card.          |  AnVol:=      0.0
      Another ordinary MODELS data card.          |  LONG:= 49.58112
      Another ordinary MODELS data card.          |  R0F:= 1.349578
      Another ordinary MODELS data card.          |  R1F:= 1.576441
      Another ordinary MODELS data card.          |  X0F:= 6.764984
      Another ordinary MODELS data card.          |  X1F:= 7.902176
      Another ordinary MODELS data card.          |  RDIVX:= 0.199495
      Another ordinary MODELS data card.          |  RINSER:=    1.E-6
      Another ordinary MODELS data card.          |  CLOSE1:= 0.043536
      Another ordinary MODELS data card.          |  RPpos:= 0.019987
      Another ordinary MODELS data card.          |  RPcero:= 0.292373
      Another ordinary MODELS data card.          |  LPpos:=  0.43505
      Another ordinary MODELS data card.          |  LPcero:= 1.002904
      Another ordinary MODELS data card.          |OUTPUT
      Another ordinary MODELS data card.          |  AnVol:=o1
      Another ordinary MODELS data card.          |  LONG:=o2
      Another ordinary MODELS data card.          |  R0F:=o3
      Another ordinary MODELS data card.          |  R1F:=o4
      Another ordinary MODELS data card.          |  X0F:=o5
      Another ordinary MODELS data card.          |  X1F:=o6
      Another ordinary MODELS data card.          |  RDIVX:=o7
      Another ordinary MODELS data card.          |  RINSER:=o8
      Another ordinary MODELS data card.          |  CLOSE1:=o9
      Another ordinary MODELS data card.          |  RPpos:=o10
      Another ordinary MODELS data card.          |  RPcero:=o11
      Another ordinary MODELS data card.          |  LPpos:=o12
      Another ordinary MODELS data card.          |  LPcero:=o13
      Another ordinary MODELS data card.          |ENDUSE
      Another ordinary MODELS data card.          |USE DEFAULT1 AS DEF
      Another ordinary MODELS data card.          |DATA
      Another ordinary MODELS data card.          |  CPpos:= 0.013404
      Another ordinary MODELS data card.          |  CPcero:= 0.008749
      Another ordinary MODELS data card.          |  Xp:= 7368.576
      Another ordinary MODELS data card.          |  CR:= 147.3715
      Another ordinary MODELS data card.          |  SIMET:=      0.0
      Another ordinary MODELS data card.          |  ENC1:=      0.0
      Another ordinary MODELS data card.          |  ENC2:=      0.0
      Another ordinary MODELS data card.          |  ENC1AS:=       1.
      Another ordinary MODELS data card.          |  ENC2AS:=      0.0
      Another ordinary MODELS data card.          |OUTPUT
      Another ordinary MODELS data card.          |  CPpos:=o1
      Another ordinary MODELS data card.          |  CPcero:=o2
      Another ordinary MODELS data card.          |  Xp:=o3
      Another ordinary MODELS data card.          |  CR:=o4
      Another ordinary MODELS data card.          |  SIMET:=o5
      Another ordinary MODELS data card.          |  ENC1:=o6
      Another ordinary MODELS data card.          |  ENC2:=o7
      Another ordinary MODELS data card.          |  ENC1AS:=o8
      Another ordinary MODELS data card.          |  ENC2AS:=o9
      Another ordinary MODELS data card.          |ENDUSE
      Another ordinary MODELS data card.          |RECORD
      Another ordinary MODELS data card.          |  DEFAULT.o1 AS AnVOL
      Another ordinary MODELS data card.          |  DEFAULT.o2 AS LONG
      Another ordinary MODELS data card.          |  DEFAULT.o3 AS R0F
      Another ordinary MODELS data card.          |  DEFAULT.o4 AS R1F
      Another ordinary MODELS data card.          |  DEFAULT.o5 AS X0F
      Another ordinary MODELS data card.          |  DEFAULT.o6 AS X1F
      Another ordinary MODELS data card.          |  DEFAULT.o7 AS RDIVX
      Another ordinary MODELS data card.          |  DEFAULT.o8 AS RINSER
      Another ordinary MODELS data card.          |  DEFAULT.o9 AS CLOSE1
      Another ordinary MODELS data card.          |  DEFAULT.o10 AS RPpos
      Another ordinary MODELS data card.          |  DEFAULT.o11 AS RPcero
      Another ordinary MODELS data card.          |  DEFAULT.o12 AS LPpos
      Another ordinary MODELS data card.          |  DEFAULT.o13 AS LPcero
      Another ordinary MODELS data card.          |  DEF.o1 AS CPpos
      Another ordinary MODELS data card.          |  DEF.o2 AS CPcero
      Another ordinary MODELS data card.          |  DEF.o3 AS Xp
      Another ordinary MODELS data card.          |  DEF.o4 AS CR
      Another ordinary MODELS data card.          |  DEF.o5 AS SIMET
      Another ordinary MODELS data card.          |  DEF.o6 AS ENC1
      Another ordinary MODELS data card.          |  DEF.o7 AS ENC2
      Another ordinary MODELS data card.          |  DEF.o8 AS ENC1AS
      Another ordinary MODELS data card.          |  DEF.o9 AS ENC2AS
Termination of data for Laurent Dube`s MODELS.    |ENDMODELS
Comment card.   NUMDCD = 153.                     |C        1         2         3         4         5         6         7         8
Comment card.   NUMDCD = 154.                     |C 345678901234567890123456789012345678901234567890123456789012345678901234567890
Optional blank card follows last of MODELS data.  |BLANK MODELS
Comment card.   NUMDCD = 156.                     |C < n1 >< n2 ><ref1><ref2>< R  >< L  >< C  >
Comment card.   NUMDCD = 157.                     |C < n1 >< n2 ><ref1><ref2>< R  >< A  >< B  ><Leng><><>0
1st of coupled R-L.   1.34960E+00  2.15336E-02    |51IFUENASB1A              1.34966.7649841285
2nd coil. 1.576E+00 2.515E-02 0.000E+00 0.000E+00 |52IFUENBSB1B              1.5764 7.902176271
Zca, Zcc=-7.560E-02-1.207E-03 1.501E+00 2.395E-02 |53IFUENCSB1C
Series R-L-C.   1.000E+09  0.000E+00  0.000E+00   |  SB1A                      1.E9                                               0
Series R-L-C.   1.000E+09  0.000E+00  0.000E+00   |  SB1B                      1.E9                                               0
Series R-L-C.   1.000E+09  0.000E+00  0.000E+00   |  SB1C                      1.E9                                               0
Series R-L-C.   1.474E+02  2.345E+01  0.000E+00   |  RSNSHA                  147.377368.6                                         0
Series R-L-C.   1.474E+02  2.345E+01  0.000E+00   |  RSNSHB                  147.377368.6                                         0
Series R-L-C.   1.474E+02  2.345E+01  0.000E+00   |  RSNSHC                  147.377368.6                                         0
Series R-L-C.   1.000E+09  0.000E+00  0.000E+00   |  RSNNHA                    1.E9                                               0
Series R-L-C.   1.000E+09  0.000E+00  0.000E+00   |  RSNNHB                    1.E9                                               0
Series R-L-C.   1.000E+09  0.000E+00  0.000E+00   |  RSNNHC                    1.E9                                               0
Series R-L-C.   1.000E+09  0.000E+00  0.000E+00   |  SE2A                      1.E9                                               0
Series R-L-C.   1.000E+09  0.000E+00  0.000E+00   |  SE2B                      1.E9                                               0
Series R-L-C.   1.000E+09  0.000E+00  0.000E+00   |  SE2C                      1.E9                                               0
Series R-L-C.   2.500E+02  0.000E+00  3.000E-10   |  X0001B                    250.       .0003                                   0
Series R-L-C.   2.500E+02  0.000E+00  3.000E-10   |  X0002B                    250.       .0003                                   0
Series R-L-C.   1.000E-06  0.000E+00  0.000E+00   |  X0001ALN1A               1.E-6                                               0
Series R-L-C.   1.000E-06  0.000E+00  0.000E+00   |  SB1A  X0002A             1.E-6                                               0
Series R-L-C.   1.000E-06  0.000E+00  0.000E+00   |  X0001BLN1B               1.E-6                                               0
Series R-L-C.   1.000E-06  0.000E+00  0.000E+00   |  SB1B  X0002B             1.E-6                                               0
Series R-L-C.   1.000E-06  0.000E+00  0.000E+00   |  X0001CLN1C               1.E-6                                               0
Series R-L-C.   1.000E-06  0.000E+00  0.000E+00   |  SB1C  X0002C             1.E-6                                               0
Series R-L-C.   1.000E-06  0.000E+00  0.000E+00   |  XX0005X0002A             1.E-6                                               0
Series R-L-C.   1.000E-06  0.000E+00  0.000E+00   |  XX0003X0002B             1.E-6                                               0
Series R-L-C.   1.000E-06  0.000E+00  0.000E+00   |  XX0004X0002C             1.E-6                                               0
Series R-L-C.   2.500E+02  0.000E+00  3.000E-10   |  X0001A                    250.       .0003                                   0
Series R-L-C.   1.000E+06  0.000E+00  0.000E+00   |  X0001AX0002A              1.E6                                               0
Series R-L-C.   1.000E+06  0.000E+00  0.000E+00   |  X0001BX0002B              1.E6                                               0
Series R-L-C.   1.000E+06  0.000E+00  0.000E+00   |  X0001CX0002C              1.E6                                               0
Series R-L-C.   2.500E+02  0.000E+00  3.000E-10   |  X0002C                    250.       .0003                                   0
Series R-L-C.   2.500E+02  0.000E+00  3.000E-10   |  X0002A                    250.       .0003                                   0
Series R-L-C.   2.500E+02  0.000E+00  3.000E-10   |  X0001C                    250.       .0003                                   0
Series R-L-C.   1.250E+02  0.000E+00  6.000E-10   |  X0001AX0002A              125.       .0006                                   0
Series R-L-C.   1.250E+02  0.000E+00  6.000E-10   |  X0001BX0002B              125.       .0006                                   0
Series R-L-C.   1.250E+02  0.000E+00  6.000E-10   |  X0001CX0002C              125.       .0006                                   0
 2.924E-01 1.003E+00 8.750E-03 6.040E+02 2.620E-04|-1LN1A  VFF2A             .292371.0029.0087549.581 0 0                         0
 1.999E-02 4.350E-01 1.340E-02 3.215E+02 2.136E-04|-2LN1B  VFF2B             .01999.43505 .013449.581 0 0                         0
3rd or later transposed distributed phase.        |-3LN1C  VFF2C                                                                  0
Blank card ending branches.  IBR, NTOT = 39  31   |BLANK BRANCH
Comment card.   NUMDCD = 198.                     |C < n 1>< n 2>< Tclose ><Top/Tde ><   Ie   ><Vf/CLOP ><  type  >
Switch.  -1.00E+00  1.00E+01  0.00E+00  0.00E+00  |  LN1A  COMPA        -1.       10.                                             0
Switch.  -1.00E+00  1.00E+01  0.00E+00  0.00E+00  |  LN1B  COMPB        -1.       10.                                             0
Switch.  -1.00E+00  1.00E+01  0.00E+00  0.00E+00  |  LN1C  COMPC        -1.       10.                                             0
Switch.  -1.00E+00  1.00E+01  0.00E+00  0.00E+00  |  VFF2A RSNNHA       -1.       10.                                             0
Switch.  -1.00E+00  1.00E+01  0.00E+00  0.00E+00  |  VFF2B RSNNHB       -1.       10.                                             0
Switch.  -1.00E+00  1.00E+01  0.00E+00  0.00E+00  |  VFF2C RSNNHC       -1.       10.                                             0
Switch.   2.00E+00 -1.00E+00  0.00E+00  0.00E+00  |  VFF2A SE2A          2.       -1.                                             0
Switch.   2.00E+00 -1.00E+00  0.00E+00  0.00E+00  |  VFF2B SE2B          2.       -1.                                             0
Switch.   2.00E+00 -1.00E+00  0.00E+00  0.00E+00  |  VFF2C SE2C          2.       -1.                                             0
Switch.   4.35E-02  1.00E+03  0.00E+00  0.00E+00  |  X0001BXX0003.043535963      1.E3                                             0
Switch.   4.35E-02  1.00E+03  0.00E+00  0.00E+00  |  X0001CXX0004.043535963      1.E3                                             0
Switch.   5.10E-02  1.00E+03  0.00E+00  0.00E+00  |  XX0005X0002A.051035963      1.E3                                             0
Switch.   5.10E-02  1.00E+03  0.00E+00  0.00E+00  |  XX0003X0002B.051035963      1.E3                                             0
Switch.   5.10E-02  1.00E+03  0.00E+00  0.00E+00  |  XX0004X0002C.051035963      1.E3                                             0
Switch.   4.35E-02  1.00E+03  0.00E+00  0.00E+00  |  X0001AXX0005.043535963      1.E3                                             0
Permanently-closed switch used for metering.      |  VFUENAIFUENA                                        MEASURING                1
Permanently-closed switch used for metering.      |  VFUENBIFUENB                                        MEASURING                1
Permanently-closed switch used for metering.      |  VFUENCIFUENC                                        MEASURING                1
Permanently-closed switch used for metering.      |  COMPA RSNSHA                                        MEASURING                1
Permanently-closed switch used for metering.      |  COMPB RSNSHB                                        MEASURING                1
Permanently-closed switch used for metering.      |  COMPC RSNSHC                                        MEASURING                1
Blank card ending switches.   KSWTCH = 21.        |BLANK SWITCH
Comment card.   NUMDCD = 221.                     |C < n 1><>< Ampl.  >< Freq.  ><Phase/T0><   A1   ><   T1   >< TSTART >< TSTOP  >
Source.   4.29E+05  5.00E+01  0.00E+00 -1.00E+00  |14VFUENA  428660.705       50.                                     -1.      100.
Source.   4.29E+05  5.00E+01 -1.20E+02 -1.00E+00  |14VFUENB  428660.705       50.     -120.                           -1.      100.
Source.   4.29E+05  5.00E+01 -2.40E+02 -1.00E+00  |14VFUENC  428660.705       50.     -240.                           -1.      100.
Blank card ends electric sources.  KCONST = 3     |BLANK SOURCE
Pi-equivalent branches of distributed circuits are added to the table of List Size 3 between indices  40   and  45.

Sinusoidal steady-state phasor solution, branch by branch.   All flows are away from a bus,  and the real part,  magnitude,  or  "P"
is printed above the imaginary part,  the angle,  or  "Q".   The first solution frequency  =  5.00000000E+01  Hertz.
  Bus K                        Phasor  node  voltage              Phasor  branch  current               Power flow       Power loss
             Bus M         Rectangular            Polar          Rectangular            Polar            P  and  Q        P  and  Q

 IFUENA                    428660.705       428660.705       .4265924922731  .44500585449244      91431.719242747  .15608741194209
                                  0.0              0.0      .12668486913905       16.5398025      -27152.41265899        0.7824348

            SB1A      428661.03360576  428661.03362063      -.4265924922731  .44500585449244      -91431.56315533
                      -3.570715097538       -0.0004773       -.126684869139     -163.4601975      27153.195093803

 IFUENB                  -214330.3525       428660.705      -.1035839311925   .4450058544883      91431.719242299  .15608741193878
                      -371231.0601341     -120.0000000      -.4327823699362     -103.4601975      -27152.41265737        0.7824348

            SB1B      -214333.6091329  428661.03362063      .10358393119252   .4450058544883      -91431.56315489
                      -371229.5593575     -120.0004773      .43278236993616       76.5398025      27153.195092186

 IFUENC                  -214330.3525       428660.705      -.3230085610811   .4450058544879      91431.719241959  .15608741193829
                      371231.06013415      120.0000000      .30609750080131      136.5398025      -27152.41265822        0.7824348

            SB1C      -214327.4244729  428661.03362063      .32300856108112   .4450058544879      -91431.56315455
                      371233.13007263      119.9995227      -.3060975008013      -43.4601975      27153.195093032

 SB1A                 428661.03360576  428661.03362063      .42866103361E-3  .42866103362E-3      91.875140872355  91.875140872355
                      -3.570715097538       -0.0004773      -.3570715098E-8       -0.0004773      -.180523897E-19        0.0000000

            TERRA                 0.0              0.0      -.4286610336E-3  .42866103362E-3                  0.0
                                  0.0              0.0      .35707150975E-8      179.9995227                  0.0

 SB1B                 -214333.6091329  428661.03362063      -.2143336091E-3  .42866103362E-3      91.875140872355  91.875140872355
                      -371229.5593575     -120.0004773      -.3712295594E-3     -120.0004773      -.180411242E-15        0.0000000

            TERRA                 0.0              0.0      .21433360913E-3  .42866103362E-3                  0.0
                                  0.0              0.0      .37122955936E-3       59.9995227                  0.0

 SB1C                 -214327.4244729  428661.03362063      -.2143274245E-3  .42866103362E-3      91.875140872355  91.875140872355
                      371233.13007263      119.9995227      .37123313007E-3      119.9995227      .1294103713E-14        0.0000000

            TERRA                 0.0              0.0      .21432742447E-3  .42866103362E-3                  0.0
                                  0.0              0.0      -.3712331301E-3      -60.0004773                  0.0

 RSNSHA               1387.9803146553  5914.1712290968      -.7761239923795  .80245756068564      47.448581602854  47.448581602854
                      -5748.993996623      -76.4268147      -.2038864516207     -165.2810674      2372.4612770495     2372.4612770

            TERRA                 0.0              0.0      .77612399237949  .80245756068564                  0.0
                                  0.0              0.0      .20388645162069       14.7189326                  0.0

 RSNSHB               -5672.765004613  5914.1712291044      .21149114959957  .80245756068668      47.448581602977  47.448581602977
                      1672.4707858734      163.5731853      .77408631969843       74.7189326      2372.4612770557     2372.4612771

            TERRA                 0.0              0.0      -.2114911495996  .80245756068668                  0.0
                                  0.0              0.0      -.7740863196984     -105.2810674                  0.0

 RSNSHC               4284.7846899548  5914.1712291052      .56463284278198  .80245756068678      47.448581602989  47.448581602989
                      4076.5232107648       43.5731853      -.5701998680773      -45.2810674      2372.4612770563     2372.4612771

            TERRA                 0.0              0.0       -.564632842782  .80245756068678                  0.0
                                  0.0              0.0      .57019986807725      134.7189326                  0.0

 RSNNHA               1390.5136424704  5927.5095992502      .13905136425E-5  .59275095993E-5       .0175676850246   .0175676850246
                      -5762.103943813      -76.4327513      -.5762103944E-5      -76.4327513      .2015938414E-18        0.0000000

            TERRA                 0.0              0.0      -.1390513642E-5  .59275095993E-5                  0.0
                                  0.0              0.0      .57621039438E-5      103.5672487                  0.0

 RSNNHB                -5685.38521583  5927.5095992578      -.5685385216E-5  .59275095993E-5      .01756768502465  .01756768502465
                      1676.8318332245      163.5672487      .16768318332E-5      163.5672487       -.16093626E-18        0.0000000

            TERRA                 0.0              0.0      .56853852158E-5  .59275095993E-5                  0.0
                                  0.0              0.0      -.1676831833E-5      -16.4327513                  0.0

 RSNNHC               4294.8715733563  5927.5095992586      .42948715734E-5  .59275095993E-5      .01756768502465  .01756768502465
                       4085.272110604       43.5672487      .40852721106E-5       43.5672487      .3887881228E-18        0.0000000

            TERRA                 0.0              0.0      -.4294871573E-5  .59275095993E-5                  0.0
                                  0.0              0.0      -.4085272111E-5     -136.4327513                  0.0

 X0001B               -5672.765004752  5914.1712291206      -.1576392552E-3  .55739750641E-3      .38836497519E-4  .38836497519E-4
                      1672.4707854617      163.5731853      -.5346417916E-3     -106.4281647      -1.648272147338       -1.6482721

            TERRA                 0.0              0.0      .15763925519E-3  .55739750641E-3                  0.0
                                  0.0              0.0      .53464179165E-3       73.5718353                  0.0

 X0002B               -214333.6091328  428661.03362021      .03498708571244  .04040035061183      .20402354119513  .20402354119513
                      -371229.5593571     -120.0004773      -.0202012911199      -30.0018273      -8659.028023539    -8659.0280235

            TERRA                 0.0              0.0      -.0349870857124  .04040035061183                  0.0
                                  0.0              0.0      .02020129111985      149.9981727                  0.0

 X0001A               1387.9803150809  5914.1712291129      .42565011426632  .43428138790644      47.751038891522  .94300161957E-7
                      -5748.993996537      -76.4268147      .08615279512014       11.4422490      -1283.319167629              0.0

            LN1A      1387.9803146553  5914.1712290968      -.4256501142663  .43428138790644      -47.75103879722
                      -5748.993996623      -76.4268147      -.0861527951201     -168.5577510      1283.3191676291

 SB1A                 428661.03360576  428661.03362063      .42619649320841  .44462625620919      91346.688471141  .98846257401E-7
                      -3.570715097538       -0.0004773      .12668487237022       16.5543301      -27153.19507934              0.0

            X0002A    428661.03360534  428661.03362021      -.4261964932084  .44462625620919      -91346.68847104
                      -3.570715224223       -0.0004773      -.1266848723702     -163.4456699      27153.195079343

 X0001B               -5672.765004752  5914.1712291206       -.138214090839  .43428152897474      47.749489577905  .94300223213E-7
                      1672.4707854617      163.5731853      -.4117005119042     -108.5576811      -1283.319642718              0.0

            LN1B      -5672.765004613  5914.1712291044      .13821409083903  .43428152897474       -47.7494894836
                      1672.4707858734      163.5731853       .4117005119042       71.4423189      1283.3196427179

 SB1B                 -214333.6091329  428661.03362063      -.1033768057823  .44460982481612      91342.979759417  .98838945917E-7
                      -371229.5593575     -120.0004773      -.4324247129261     -103.4449674      -27153.31167067              0.0

            X0002B    -214333.6091328  428661.03362021      .10337680578232  .44460982481612      -91342.97975932
                      -371229.5593571     -120.0004773      .43242471292615       76.5550326      27153.311670673

 X0001C               4284.7846896674  5914.1712291213      -.2874367055483  .43428202762268      47.748287408838   .9430043979E-7
                      4076.5232110903       43.5731853      .32554726203671      131.4423750      -1283.321163013              0.0

            LN1C      4284.7846899548  5914.1712291052      .28743670554832  .43428202762268      -47.74828731454
                      4076.5232107648       43.5731853      -.3255472620367      -48.5576250      1283.3211630125

 SB1C                 -214327.4244729  428661.03362063      -.3227905835956   .4446188254419      91346.457038482  .98842946272E-7
                      371233.13007263      119.9995227      .30576484277844      136.5515968      -27148.38372956        0.0000000

            X0002C    -214327.4244726  428661.03362021      .32279058359563   .4446188254419      -91346.45703838
                      371233.13007233      119.9995227      -.3057648427784      -43.4484032      27148.383729557

 XX0005               428661.03360534  428661.03362021                  0.0              0.0                  0.0              0.0
                      -3.570715224223       -0.0004773                  0.0              0.0                  0.0              0.0

            X0002A    428661.03360534  428661.03362021                  0.0              0.0                  0.0
                      -3.570715224223       -0.0004773                  0.0              0.0                  0.0

 XX0003               -214333.6091328  428661.03362021                  0.0              0.0                  0.0              0.0
                      -371229.5593571     -120.0004773                  0.0              0.0                  0.0              0.0

            X0002B    -214333.6091328  428661.03362021                  0.0              0.0                  0.0
                      -371229.5593571     -120.0004773                  0.0              0.0                  0.0

 XX0004               -214327.4244726  428661.03362021                  0.0              0.0                  0.0              0.0
                      371233.13007233      119.9995227                  0.0              0.0                  0.0              0.0

            X0002C    -214327.4244726  428661.03362021                  0.0              0.0                  0.0
                      371233.13007233      119.9995227                  0.0              0.0                  0.0

 X0001A               1387.9803150809  5914.1712291129      .54183300108E-3  .55739750641E-3      .38836497519E-4  .38836497519E-4
                      -5748.993996537      -76.4268147       .1308012962E-3       13.5718353      -1.648272147334       -1.6482721

            TERRA                 0.0              0.0      -.5418330011E-3  .55739750641E-3                  0.0
                                  0.0              0.0      -.1308012962E-3     -166.4281647                  0.0

 X0001A               1387.9803150809  5914.1712291129      -.4272730532903  .42731168010793      -280.0080915898  91297.635978329
                      -5748.993996537      -76.4268147      -.0057454232813     -179.2296058      1232.1823763319        0.0000000

            X0002A    428661.03360534  428661.03362021      .42727305329025  .42731168010793      91577.644069919
                      -3.570715224223       -0.0004773      .00574542328131        0.7703942      -1232.182376332

 X0001B               -5672.765004752  5914.1712291206      .20866084412801  .42731168010793      -280.0080915893   91297.63597833
                      1672.4707854617      163.5731853      .37290203014257       60.7703942      1232.1823763337        0.0000000

            X0002B    -214333.6091328  428661.03362021       -.208660844128  .42731168010793      91577.644069919
                      -371229.5593571     -120.0004773      -.3729020301426     -119.2296058      -1232.182376334

 X0001C               4284.7846896674  5914.1712291213      .21861220916224  .42731168010792      -280.0080915911  91297.635978326
                      4076.5232110903       43.5731853      -.3671566068612      -59.2296058      1232.1823763334        0.0000000

            X0002C    -214327.4244726  428661.03362021      -.2186122091622  .42731168010792      91577.644069918
                      371233.13007233      119.9995227      .36715660686124      120.7703942      -1232.182376333

 X0002C               -214327.4244726  428661.03362021      -.0349883741553  .04040035061183       .2040235411946   .2040235411946
                      371233.13007233      119.9995227      -.0201990594714     -150.0018273      -8659.028023539    -8659.0280235

            TERRA                 0.0              0.0      .03498837415526  .04040035061183                  0.0
                                  0.0              0.0      .02019905947143       29.9981727                  0.0

 X0002A               428661.03360534  428661.03362021      .12884428161E-5  .04040035061183      .20402354119484  .20402354119484
                      -3.570715224223       -0.0004773      .04040035059128       89.9981727      -8659.028023539    -8659.0280235

            TERRA                 0.0              0.0      -.1288442816E-5  .04040035061183                  0.0
                                  0.0              0.0      -.0404003505913      -90.0018273                  0.0

 X0001C               4284.7846896674  5914.1712291213      -.3841937459E-3  .55739750641E-3      .38836497519E-4  .38836497519E-4
                      4076.5232110903       43.5731853      .40384049545E-3      133.5718353      -1.648272147338       -1.6482721

            TERRA                 0.0              0.0       .3841937459E-3  .55739750641E-3                  0.0
                                  0.0              0.0      -.4038404955E-3      -46.4281647                  0.0

 X0001A               1387.9803150809  5914.1712291129      .00108108911654  .08054635407885        232.259662347  .40548219721225
                      -5748.993996537      -76.4268147      -.0805390985902      -89.2309558      52.785754298417   -17209.1989392

            X0002A    428661.03360534  428661.03362021      -.0010810891165  .08054635407885      -231.8541801498
                      -3.570715224223       -0.0004773      .08053909859017       90.7690442      -17261.98469352

 X0001B               -5672.765004752  5914.1712291206      -.0702894499353  .08054635407885      232.25966234734  .40548219721322
                      1672.4707854617      163.5731853      .03933329865641      150.7690442      52.785754298318   -17209.1989392

            X0002B    -214333.6091328  428661.03362021      .07028944993526  .08054635407885      -231.8541801501
                      -371229.5593571     -120.0004773      -.0393332986564      -29.2309558      -17261.98469352

 X0001C               4284.7846896674  5914.1712291213      .06920836081872  .08054635407885      232.25966234728  .40548219721156
                      4076.5232110903       43.5731853      .04120579993376       30.7690442       52.78575429867   -17209.1989392

            X0002C    -214327.4244726  428661.03362021      -.0692083608187  .08054635407885      -231.8541801501
                      371233.13007233      119.9995227      -.0412057999338     -149.2309558      -17261.98469352

 LN1A                 1387.9803146553  5914.1712290968      1.2017742738781  1.2362784256215      .30170283327413  .28413514824488
                      -5748.993996623      -76.4268147      .29003954954812       13.5684568      -3655.781135533    -3655.7811355

            VFF2A     1390.5136424704  5927.5095992502      -.1390513649E-5  .59275096008E-5      -.0175676850292
                      -5762.103943813      -76.4327513      .57621039438E-5      103.5672488      .2002041166E-10

 LN1B                 -5672.765004613  5914.1712291044       -.349705518929  1.2362784256226      .30170283228337  .28413514723664
                      1672.4707858734      163.5731853      -1.185786825568     -106.4315432       -3655.78113554    -3655.7811355

            VFF2B      -5685.38521583  5927.5095992578      .56853852257E-5  .59275096067E-5      -.0175676850467
                      1676.8318332245      163.5672487      -.1676831826E-5      -16.4327512      .2851925432E-10

 LN1C                 4284.7846899548  5914.1712291052      -.8520687549512  1.2362784256227      .30170283416894  .28413514917119
                      4076.5232107648       43.5731853       .8957472760193      133.5684568      -3655.781135541    -3655.7811355

            VFF2C     4294.8715733563  5927.5095992586      -.4294871593E-5  .59275095902E-5      -.0175676849978
                       4085.272110604       43.5672487      -.4085272077E-5     -136.4327516      -.1113916572E-9
     Total network loss  P-loss  by summing injections =   2.743171053934E+05

Output for steady-state phasor switch currents.
      Node-K    Node-M            I-real            I-imag            I-magn          Degrees        Power            Reactive
      LN1A      COMPA        -7.76123671E-01   -2.03887090E-01    8.02457412E-01    -165.2810    4.74506384E+01    2.37246080E+03
      LN1B      COMPB         2.11491482E-01    7.74086313E-01    8.02457641E-01      74.7189    4.74476323E+01    2.37246154E+03
      LN1C      COMPC         5.64632226E-01   -5.70199862E-01    8.02457122E-01     -45.2811    4.74472730E+01    2.37246001E+03
      VFF2A     RSNNHA        1.39051368E-06   -5.76210395E-06    5.92750961E-06     -76.4328    1.75676851E-02   -1.08633571E-10
      VFF2B     RSNNHB       -5.68538523E-06    1.67683181E-06    5.92750960E-06     163.5672    1.75676850E-02   -8.79341642E-11
      VFF2C     RSNNHC        4.29487159E-06    4.08527209E-06    5.92750960E-06      43.5672    1.75676850E-02    7.57344019E-11
      VFF2A     SE2A              Open              Open              Open             Open          Open              Open
      VFF2B     SE2B              Open              Open              Open             Open          Open              Open
      VFF2C     SE2C              Open              Open              Open             Open          Open              Open
      X0001B    XX0003            Open              Open              Open             Open          Open              Open
      X0001C    XX0004            Open              Open              Open             Open          Open              Open
      XX0005    X0002A            Open              Open              Open             Open          Open              Open
      XX0003    X0002B            Open              Open              Open             Open          Open              Open
      XX0004    X0002C            Open              Open              Open             Open          Open              Open
      X0001A    XX0005            Open              Open              Open             Open          Open              Open
      VFUENA    IFUENA        4.26592492E-01    1.26684869E-01    4.45005854E-01      16.5398    9.14317192E+04   -2.71524127E+04
      VFUENB    IFUENB       -1.03583931E-01   -4.32782370E-01    4.45005854E-01    -103.4602    9.14317192E+04   -2.71524127E+04
      VFUENC    IFUENC       -3.23008561E-01    3.06097501E-01    4.45005854E-01     136.5398    9.14317192E+04   -2.71524127E+04
      COMPA     RSNSHA       -7.76123671E-01   -2.03887090E-01    8.02457412E-01    -165.2810    4.74506384E+01    2.37246080E+03
      COMPB     RSNSHB        2.11491482E-01    7.74086313E-01    8.02457641E-01      74.7189    4.74476323E+01    2.37246154E+03
      COMPC     RSNSHC        5.64632226E-01   -5.70199862E-01    8.02457122E-01     -45.2811    4.74472730E+01    2.37246001E+03

Solution at nodes with known voltage.   Nodes that are shorted together by switches are shown as a group of names, with the printed
result applying to the composite group.   The entry "MVA" is  SQRT( P**2 + Q**2 )  in units of power,  while  "P.F."  is the
associated power factor.
              Node                Source  node  voltage             Injected  source  current              Injected  source  power
              name         Rectangular            Polar          Rectangular            Polar            P  and  Q    MVA and P.F.

               VFUENA
              IFUENA       428660.705       428660.705      .42659249227354  .44500585449164      91431.719242842  95378.261657757
                                  0.0              0.0      .12668486913472       16.5398025      -27152.41265806        0.9586222

               VFUENB
              IFUENB     -214330.3525       428660.705      -.1035839311882  .44500585448751      91431.719241875  95378.261656871
                      -371231.0601341     -120.0000000      -.4327823699364     -103.4601975      -27152.41265821        0.9586222

               VFUENC
              IFUENC     -214330.3525       428660.705      -.3230085610816  .44500585448908      91431.719242237  95378.261657209
                      371231.06013415      120.0000000      .30609750080254      136.5398025      -27152.41265817        0.9586222

  +++  Node  "COMPC "  has no connected linear branches.  Add (to ground) the conductance  G = 1.00000000E-18  mhos.
  +++  Node  "COMPB "  has no connected linear branches.  Add (to ground) the conductance  G = 1.00000000E-18  mhos.
  +++  Node  "COMPA "  has no connected linear branches.  Add (to ground) the conductance  G = 1.00000000E-18  mhos.
Card of names for time-step loop output.          |  LN1A  LN1B  LN1C  COMPA COMPB COMPC SB1A  SB1B  SB1C  SE2A  SE2B  SE2C  VFF2A
Card of names for time-step loop output.          |  VFF2B VFF2C IFUENAIFUENBIFUENC
Card of names for time-step loop output.          |-5VFF2A VFF2B VFF2B VFF2C VFF2C VFF2A LN1A  LN1B  LN1B  LN1C  LN1C  LN1A
Card of names for time-step loop output.          |-5SB1A  SB1B  SB1B  SB1C  SB1C  SB1A
Blank card ending requests for output variables.  |BLANK OUTPUT

Column headings for the  55   EMTP output variables follow.  These are divided among the 5 possible classes as follows ....
  First  27     output variables are electric-network voltage differences (upper voltage minus lower voltage);
  Next   6     output variables are branch currents (flowing from the upper node to the lower node);
  Next   22     output variables belong to MODELS (with "MODELS" an internally-added upper name of pair).
   Step      Time      LN1A       LN1B       LN1C       COMPA      COMPB      COMPC      SB1A       SB1B       SB1C       SE2A
 

                       SE2B       SE2C       VFF2A      VFF2B      VFF2C      IFUENA     IFUENB     IFUENC     VFF2A      VFF2B
                                                                                                               VFF2B      VFF2C

                       VFF2C      LN1A       LN1B       LN1C       SB1A       SB1B       SB1C       VFUENA     VFUENB     VFUENC
                       VFF2A      LN1B       LN1C       LN1A       SB1B       SB1C       SB1A       IFUENA     IFUENB     IFUENC

                       COMPA      COMPB      COMPC      MODELS     MODELS     MODELS     MODELS     MODELS     MODELS     MODELS
                       RSNSHA     RSNSHB     RSNSHC     ANVOL      LONG       R0F        R1F        X0F        X1F        RDIVX

                       MODELS     MODELS     MODELS     MODELS     MODELS     MODELS     MODELS     MODELS     MODELS     MODELS
                       RINSER     CLOSE1     RPPOS      RPCERO     LPPOS      LPCERO     CPPOS      CPCERO     XP         CR

                       MODELS     MODELS     MODELS     MODELS     MODELS
                       SIMET      ENC1       ENC2       ENC1AS     ENC2AS
 ***      Phasor I(0) = -7.7612367E-01                     Switch  "LN1A  "  to  "COMPA "  closed in the steady-state.
 ***      Phasor I(0) =  2.1149148E-01                     Switch  "LN1B  "  to  "COMPB "  closed in the steady-state.
 ***      Phasor I(0) =  5.6463223E-01                     Switch  "LN1C  "  to  "COMPC "  closed in the steady-state.
 ***      Phasor I(0) =  1.3905137E-06                     Switch  "VFF2A "  to  "RSNNHA"  closed in the steady-state.
 ***      Phasor I(0) = -5.6853852E-06                     Switch  "VFF2B "  to  "RSNNHB"  closed in the steady-state.
 ***      Phasor I(0) =  4.2948716E-06                     Switch  "VFF2C "  to  "RSNNHC"  closed in the steady-state.
 ***      Phasor I(0) =  4.2659249E-01                     Switch  "VFUENA"  to  "IFUENA"  closed in the steady-state.
 ***      Phasor I(0) = -1.0358393E-01                     Switch  "VFUENB"  to  "IFUENB"  closed in the steady-state.
 ***      Phasor I(0) = -3.2300856E-01                     Switch  "VFUENC"  to  "IFUENC"  closed in the steady-state.
 ***      Phasor I(0) = -7.7612367E-01                     Switch  "COMPA "  to  "RSNSHA"  closed in the steady-state.
 ***      Phasor I(0) =  2.1149148E-01                     Switch  "COMPB "  to  "RSNSHB"  closed in the steady-state.
 ***      Phasor I(0) =  5.6463223E-01                     Switch  "COMPC "  to  "RSNSHC"  closed in the steady-state.
      0       0.0  1387.98031  -5672.765 4284.78469 1387.98031  -5672.765 4284.78469 428661.034 -214333.61 -214327.42        0.0
                          0.0        0.0 1390.51364 -5685.3852 4294.87157 428660.705 -214330.35 -214330.35 7075.89886 -9980.2568
                   2904.35793 7060.74532 -9957.5497 2896.80438 642994.643   -6.18466 -642988.46 .426592492 -.10358393 -.32300856
                   -.77612367 .211491482 .564632226        0.0   49.58112   1.349578   1.576441   6.764984   7.902176    .199495
                        .1E-5    .043536    .019987    .292373     .43505   1.002904    .013404    .008749   7368.576   147.3715
                          0.0        0.0        0.0        1.0        0.0
    500     .5E-3  2270.25005 -5864.5615 3594.31137 2270.25005 -5864.5615 3594.31137 423384.175 -153621.75 -269762.43        0.0
                          0.0        0.0 2274.79483 -5877.7047 3602.91214  423383.18 -153618.26 -269764.92 8152.49953 -9480.6168
                   1328.11731  8134.8116 -9458.8729 1324.06132 577005.925 116140.675  -693146.6 .401599948 -.03461778 -.36696548
                   -.73467399 .087793968 .646880261        0.0   49.58112   1.349578   1.576441   6.764984   7.902176    .199495
                        .1E-5    .043536    .019987    .292373     .43505   1.002904    .013404    .008749   7368.576   147.3715
                          0.0        0.0        0.0        1.0        0.0
   1000     .1E-2  3096.58552  -5911.941 2815.35595 3096.58552  -5911.941 2815.35595 407681.918  -89127.11  -318554.8        0.0
                          0.0        0.0 3103.04928 -5925.2938 2822.24217 407680.557 -89123.572 -318556.98  9028.3431  -8747.536
                   -280.80711 9008.52655  -8727.297 -281.22956 496809.029  229427.69 -726236.72  .36667782 .035205751 -.40187211
                    -.6751334 -.03806589 .713199111        0.0   49.58112   1.349578   1.576441   6.764984   7.902176    .199495
                        .1E-5    .043536    .019987    .292373     .43505   1.002904    .013404    .008749   7368.576   147.3715
                          0.0        0.0        0.0        1.0        0.0
   1500     .0015  3846.68595 -5813.7541 1967.06812 3846.68595 -5813.7541 1967.06812 381941.382 -22437.955 -359503.45        0.0
                          0.0        0.0 3854.86937 -5826.9691 1972.10029 381939.485 -22434.368 -359505.12 9681.83842 -7799.0693
                   -1882.7691  9660.4401 -7780.8223 -1879.6178 404379.336 337065.493 -741444.83 .322675124 .104179382 -.42685238
                   -.59896889 -.16298746 .761956849        0.0   49.58112   1.349578   1.576441   6.764984   7.902176    .199495
                        .1E-5    .043536    .019987    .292373     .43505   1.002904    .013404    .008749   7368.576   147.3715
                          0.0        0.0        0.0        1.0        0.0
   2000      .002  4502.06955 -5572.4132 1070.34462 4502.06955 -5572.4132 1070.34462 346796.192 44803.7174 -391599.91        0.0
                          0.0        0.0 4511.82127 -5585.1851 1073.36473 346793.795 44807.2448 -391601.04 10097.0063 -6658.5498
                   -3438.4565 10074.4828 -6642.7578 -3431.7249 301992.475 436403.624  -738396.1 .270732667 .170586511 -.44132473
                   -.50805651 -.28389638  .79195252        0.0   49.58112   1.349578   1.576441   6.764984   7.902176    .199495
                        .1E-5    .043536    .019987    .292373     .43505   1.002904    .013404    .008749   7368.576   147.3715
                          0.0        0.0        0.0        1.0        0.0
   2500     .0025  5046.59939 -5193.8625 147.263502 5046.59939 -5193.8625 147.263502 303111.651 110942.192 -414053.84        0.0
                          0.0        0.0 5057.67156 -5205.8735 148.202919 303108.891 110945.554 -414054.45  10263.545 -5354.0764
                   -4909.4686 10240.4619  -5341.126 -4899.3359 192169.459 524996.029 -717165.49 .212123269 .232792295  -.4449312
                   -.40463302 -.39781456 .802447806        0.0   49.58112   1.349578   1.576441   6.764984   7.902176    .199495
                        .1E-5    .043536    .019987    .292373     .43505   1.002904    .013404    .008749   7368.576   147.3715
                          0.0        0.0        0.0        1.0        0.0
   3000      .003  5466.87145  -4687.424 -779.44834 5466.87145  -4687.424 -779.44834 251963.531 174348.882 -426312.42        0.0
                          0.0        0.0 5478.96274  -4698.368 -780.59398 251960.441 174352.016 -426312.46 10177.3307  -3917.774
                   -6259.5567 10154.2954 -3907.9757 -6246.3198 77614.6491   600661.3 -678275.95 .148308494 .289261897 -.43759046
                   -.29124715 -.50193745 .793184199        0.0   49.58112   1.349578   1.576441   6.764984   7.902176    .199495
                        .1E-5    .043536    .019987    .292373     .43505   1.002904    .013404    .008749   7368.576   147.3715
                          0.0        0.0        0.0        1.0        0.0
   3500     .0035  5752.51353 -4065.5586 -1686.9552 5752.51353 -4065.5586 -1686.9552 194611.195 233462.544 -428073.74        0.0
                          0.0        0.0 5765.34929 -4075.1758 -1690.1742 194607.888 233465.353 -428073.24 9840.52504 -2385.0016
                   -7455.5235 9818.07215 -2378.6034 -7439.4688 -38851.349 661536.286 -622684.94 .080839324 .338609038 -.41947423
                   -.17068906 -.59370042 .764389584        0.0   49.58112   1.349578   1.576441   6.764984   7.902176    .199495
                        .1E-5    .043536    .019987    .292373     .43505   1.002904    .013404    .008749   7368.576   147.3715
                          0.0        0.0        0.0        1.0        0.0
   4000      .004  5896.52347 -3343.5908 -2552.9323 5896.52347 -3343.5908 -2552.9323 132466.929 286827.566  -419294.5        0.0
                          0.0        0.0 5909.77396 -3351.6393 -2558.1367 132463.443 286829.997 -419293.44 9261.41329  -793.5026
                   -8467.9107 9240.11427 -790.65853 -8449.4557 -154360.64 706122.065 -551761.43 .011364875 .379623328 -.39102032
                   -.04592822 -.67084515 .716773261        0.0   49.58112   1.349578   1.576441   6.764984   7.902176    .199495
                        .1E-5    .043536    .019987    .292373     .43505   1.002904    .013404    .008749   7368.576   147.3715
                          0.0        0.0        0.0        1.0        0.0
   4500     .0045  5895.34449 -2539.2938 -3356.0496 5895.34449 -2539.2938 -3356.0496 67060.9062 333129.937 -400190.84        0.0
                          0.0        0.0 5908.69189 -2545.5791 -3363.1179 67057.3081 333131.936 -400189.24 8454.27096 817.538831
                   -9271.8098 8434.63834 816.755754 -9251.3941 -266069.03 733320.779 -467251.75 -.05837751  .41128579 -.35294569
                   .079963247 -.73147114 .651507833        0.0   49.58112   1.349578   1.576441   6.764984   7.902176    .199495
                        .1E-5    .043536    .019987    .292373     .43505   1.002904    .013404    .008749   7368.576   147.3715
                          0.0        0.0        0.0        1.0        0.0
   5000      .005  5748.98975 -1672.4665 -4076.5216 5748.98975 -1672.4665 -4076.5216 3.55682224 371229.565 -371233.12        0.0
                          0.0        0.0 5762.10458 -1676.8303 -4085.2751 -.45661E-7  371231.06 -371231.06 7438.93486  2408.4448
                   -9847.3797 7421.45627 2404.05508 -9825.5113 -371226.01 742462.685 -371236.68 -.12668344 .432820988 -.30618021
                      .203886 -.77408567 .570199642        0.0   49.58112   1.349578   1.576441   6.764984   7.902176    .199495
                        .1E-5    .043536    .019987    .292373     .43505   1.002904    .013404    .008749   7368.576   147.3715
                          0.0        0.0        0.0        1.0        0.0
   5500     .0055  5461.08176 -764.46034 -4696.6205 5461.08176 -764.46034 -4696.6205 -67053.836  400188.27 -333134.44        0.0
                          0.0        0.0 5473.63438 -766.79373 -4706.8404 -67057.308 400189.244 -333131.94 6240.42811 3940.04669
                   -10180.475 6225.54209 3932.16019 -10157.702 -467242.11 733322.709  -266080.6  -.1918751 .443701178 -.25187156
                   .322788183 -.79763996 .474851875        0.0   49.58112   1.349578   1.576441   6.764984   7.902176    .199495
                        .1E-5    .043536    .019987    .292373     .43505   1.002904    .013404    .008749   7368.576   147.3715
                          0.0        0.0        0.0        1.0        0.0
   6000      .006  5038.70988  162.36733 -5201.0774 5038.70988  162.36733 -5201.0774 -132460.14 419293.012 -286832.88        0.0
                          0.0        0.0 5050.39012 162.121391 -5212.5116 -132463.44  419293.44   -286830. 4888.26873 5374.63303
                   -10262.902 4876.34255 5363.44477 -10239.787 -551753.15 706125.894 -154372.74 -.25233904 .443655043 -.19136271
                   .433742451 -.80155355 .367811135        0.0   49.58112   1.349578   1.576441   6.764984   7.902176    .199495
                        .1E-5    .043536    .019987    .292373     .43505   1.002904    .013404    .008749   7368.576   147.3715
                          0.0        0.0        0.0        1.0        0.0
   6500     .0065  4492.25635 1085.20091 -5577.4585 4492.25635 1085.20091 -5577.4585 -194604.85 428073.379 -233468.53        0.0
                          0.0        0.0 4502.79114 1087.04376 -5589.8347 -194607.89  428073.24 -233465.35 3415.74739 6676.87845
                   -10092.626 3407.05544  6662.6594 -10069.715 -622678.23 661541.909 -38863.676 -.30659193 .432685422 -.12614049
                     .5340161 -.78573014 .251714292        0.0   49.58112   1.349578   1.576441   6.764984   7.902176    .199495
                        .1E-5    .043536    .019987    .292373     .43505   1.002904    .013404    .008749   7368.576   147.3715
                          0.0        0.0        0.0        1.0        0.0
   7000      .007  3835.19909 1981.30957 -5816.5104 3835.19909 1981.30957 -5816.5104 -251957.73 426313.153 -174355.42        0.0
                          0.0        0.0 3844.31093 1985.20227 -5829.5124 -251960.44 426312.457 -174352.02 1859.10866 7814.71472
                   -9673.8234 1853.88952 7797.81997 -9651.7095 -678270.89 600668.572 77602.3155 -.35329201 .411060101 -.05781484
                   .621140937 -.75055959 .129418531        0.0   49.58112   1.349578   1.576441   6.764984   7.902176    .199495
                        .1E-5    .043536    .019987    .292373     .43505   1.002904    .013404    .008749   7368.576   147.3715
                          0.0        0.0        0.0        1.0        0.0
   7500     .0075   3083.6987 2828.63502 -5912.3351  3083.6987 2828.63502 -5912.3351 -303106.61 414055.691 -110949.08        0.0
                          0.0        0.0  3091.1747  2834.4774 -5925.6512 -303108.89 414054.446 -110945.55 256.697296 8760.12856
                   -9016.8259 255.063676 8740.97014 -8996.0338  -717162.3 525004.773 192157.529 -.39129076 .379312024 .011932665
                   .692971151 -.69690761 .003936242        0.0   49.58112   1.349578   1.576441   6.764984   7.902176    .199495
                        .1E-5    .043536    .019987    .292373     .43505   1.002904    .013404    .008749   7368.576   147.3715
                          0.0        0.0        0.0        1.0        0.0
   8000      .008  2256.27036 3606.30925 -5862.5798 2256.27036 3606.30925 -5862.5798 -346791.98 391602.795 -44810.825        0.0
                          0.0        0.0 2261.92423 3613.95726 -5875.8809  -346793.8  391601.04 -44807.245  -1352.033 9489.83814
                   -8137.8051 -1350.0389 9468.88905 -8118.8502 -738394.77  436413.62  301981.15 -.41966058 .338226395 .081390388
                   .747737827 -.62609567 -.12164218        0.0   49.58112   1.349578   1.576441   6.764984   7.902176    .199495
                        .1E-5    .043536    .019987    .292373     .43505   1.002904    .013404    .008749   7368.576   147.3715
                          0.0        0.0        0.0        1.0        0.0
   8500     .0085  1373.28779 4295.18283 -5668.4703 1373.28779 4295.18283 -5668.4703 -381938.15 359507.331 22430.8093        0.0
                          0.0        0.0 1376.98119 4304.44801 -5681.4294 -381939.48 359505.117 22434.3679 -2927.4668  9985.8774
                   -7058.4106  -2921.895 9963.65317 -7041.7581 -741445.48 337076.522 404368.957 -.43769288 .288811474 .148841939
                   .784092979 -.53986693 -.24422624        0.0   49.58112   1.349578   1.576441   6.764984   7.902176    .199495
                        .1E-5    .043536    .019987    .292373     .43505   1.002904    .013404    .008749   7368.576   147.3715
                          0.0        0.0        0.0        1.0        0.0
   9000      .009  456.486323 4878.29538 -5334.7836 456.486323 4878.29538 -5334.7836 -407679.77 318559.619 89120.1486        0.0
                          0.0        0.0 458.132073 4888.94894 -5347.0823 -407680.56 318556.985  89123.572 -4430.8169 10236.0313
                   -5805.2144 -4421.8091  10213.079 -5791.2699 -726239.39  229439.47 496799.921 -.44494808 .232285114 .212628697
                   .801141112 -.44034487 -.36079603        0.0   49.58112   1.349578   1.576441   6.764984   7.902176    .199495
                        .1E-5    .043536    .019987    .292373     .43505   1.002904    .013404    .008749   7368.576   147.3715
                          0.0        0.0        0.0        1.0        0.0
   9500     .0095  -471.55646 5341.28831 -4869.7352 -471.55646 5341.28831 -4869.7352 -423382.95 269767.905 153615.043        0.0
                          0.0        0.0 -472.00404 5353.07016 -4881.0678 -423383.18 269764.922 153618.258 -5825.0742  10234.138
                   -4409.0638 -5812.8448 10211.0235 -4398.1787 -693150.86 116152.862 576997.994 -.44125201 .170040339 .271182229
                   .798462383 -.32998013 -.46848203        0.0   49.58112   1.349578   1.576441   6.764984   7.902176    .199495
                        .1E-5    .043536    .019987    .292373     .43505   1.002904    .013404    .008749   7368.576   147.3715
                          0.0        0.0        0.0        1.0        0.0
  10000       .01  -1387.9818 5672.76106 -4284.7789 -1387.9818 5672.76106 -4284.7789 -428661.04  214333.61 214327.426        0.0
                          0.0        0.0 -1390.5153 5685.38081  -4294.866 -428660.71 214330.353 214330.352 -7075.8961 9980.24677
                   -2904.3507 -7060.7428 9957.53996 -2896.7971 -642994.65 6.18451833 642988.464  -.4266873 .103607355 .323056124
                   .776122794 -.21149086 -.56463263        0.0   49.58112   1.349578   1.576441   6.764984   7.902176    .199495
                        .1E-5    .043536    .019987    .292373     .43505   1.002904    .013404    .008749   7368.576   147.3715
                          0.0        0.0        0.0        1.0        0.0
  10500     .0105  -2270.2299 5864.55095 -3594.3182 -2270.2299 5864.55095 -3594.3182 -423384.07 153621.714  269762.36        0.0
                          0.0        0.0 -2274.7764 5877.69489 -3602.9177 -423383.18 153618.258 269764.922 -8152.4713 9480.61258
                   -1328.1413 -8134.7808  9458.8691 -1324.0883 -577005.78 -116140.65 693146.429 -.40161624 .034623527 .366975711
                   .734672878 -.08779311 -.64687927        0.0   49.58112   1.349578   1.576441   6.764984   7.902176    .199495
                        .1E-5    .043536    .019987    .292373     .43505   1.002904    .013404    .008749   7368.576   147.3715
                          0.0        0.0        0.0        1.0        0.0
  11000      .011  -3096.5802 5911.93457 -2815.3544 -3096.5802 5911.93457 -2815.3544 -407681.97 89127.1327 318554.838        0.0
                          0.0        0.0 -3103.0417 5925.28544 -2822.2433 -407680.56  89123.572 318556.985 -9028.3271 8747.52876
                    280.79836 -9008.5147   8727.289 281.225744  -496809.1 -229427.71 726236.809 -.36665486 -.03521337 .401858262
                   .675132532  .03806579 -.71319832        0.0   49.58112   1.349578   1.576441   6.764984   7.902176    .199495
                        .1E-5    .043536    .019987    .292373     .43505   1.002904    .013404    .008749   7368.576   147.3715
                          0.0        0.0        0.0        1.0        0.0
  11500     .0115  -3846.6857 5813.74908 -1967.0638 -3846.6857 5813.74908 -1967.0638  -381941.4  22437.952 359503.449        0.0
                          0.0        0.0 -3854.8948 5826.97398 -1972.0793 -381939.48 22434.3679 359505.117 -9681.8687 7799.05325
                    1882.8155 -9660.4348 7780.81292 1879.62183 -404379.35  -337065.5  741444.85 -.32266466 -.10418331 .426845481
                   .598968265 .162987869 -.76195593        0.0   49.58112   1.349578   1.576441   6.764984   7.902176    .199495
                        .1E-5    .043536    .019987    .292373     .43505   1.002904    .013404    .008749   7368.576   147.3715
                          0.0        0.0        0.0        1.0        0.0
  12000      .012  -4502.0636 5572.40693 -1070.3439 -4502.0636 5572.40693 -1070.3439 -346796.16 -44803.728 391599.888        0.0
                          0.0        0.0 -4511.8246 5585.18199 -1073.3582  -346793.8 -44807.245  391601.04 -10097.007 6658.54016
                   3438.46644 -10074.471 6642.75082 3431.71972 -301992.43 -436403.62 738396.049 -.27073355 -.17058641 .441325008
                   .508054894 .283896617 -.79195176        0.0   49.58112   1.349578   1.576441   6.764984   7.902176    .199495
                        .1E-5    .043536    .019987    .292373     .43505   1.002904    .013404    .008749   7368.576   147.3715
                          0.0        0.0        0.0        1.0        0.0
  12500     .0125   -5046.595 5193.85667  -147.2619  -5046.595 5193.85667  -147.2619 -303111.64 -110942.19 414053.833        0.0
                          0.0        0.0 -5057.6582 5205.86459 -148.20687 -303108.89 -110945.55 414054.446 -10263.523 5354.07146
                   4909.45133 -10240.452 5341.11857 4899.33314 -192169.45 -524996.03 717165.473  -.2121346 -.23278967 .444936667
                   .404632507  .39781461 -.80244688        0.0   49.58112   1.349578   1.576441   6.764984   7.902176    .199495
                        .1E-5    .043536    .019987    .292373     .43505   1.002904    .013404    .008749   7368.576   147.3715
                          0.0        0.0        0.0        1.0        0.0
  13000      .013  -5466.8599 4687.41567  779.44459 -5466.8599 4687.41567  779.44459 -251963.52 -174348.89 426312.407        0.0
                          0.0        0.0 -5478.9552  4698.3619  780.59413 -251960.44 -174352.02 426312.457 -10177.317 3917.76777
                   6259.54932 -10154.276 3907.97108 6246.30452 -77614.631  -600661.3 678275.927 -.14830986 -.28926168 .437591074
                   .291245648 .501937077 -.79318321        0.0   49.58112   1.349578   1.576441   6.764984   7.902176    .199495
                        .1E-5    .043536    .019987    .292373     .43505   1.002904    .013404    .008749   7368.576   147.3715
                          0.0        0.0        0.0        1.0        0.0
  13500     .0135  -5752.5126 4065.55477  1686.9581 -5752.5126 4065.55477  1686.9581 -194611.22 -233462.54 428073.758        0.0
                          0.0        0.0  -5765.343 4075.17007 1690.17362 -194607.89 -233465.35  428073.24 -9840.5131 2384.99645
                   7455.51665 -9818.0674 2378.59667 7439.47069  38851.312 -661536.29 622684.981 -.08083478 -.33861047 .419471612
                   .170688311 .593700324 -.76438868        0.0   49.58112   1.349578   1.576441   6.764984   7.902176    .199495
                        .1E-5    .043536    .019987    .292373     .43505   1.002904    .013404    .008749   7368.576   147.3715
                          0.0        0.0        0.0        1.0        0.0
  14000      .014  -5896.5189  3343.5858 2552.93244 -5896.5189  3343.5858 2552.93244 -132466.95 -286827.56 419294.507        0.0
                          0.0        0.0 -5909.7725 3351.63384   2558.137 -132463.44   -286830.  419293.44 -9261.4064 793.496839
                   8467.90954 -9240.1047 790.653356 8449.45138 154360.615 -706122.07 551761.454 -.01136866 -.37962183 .391022898
                   .045928056 .670844888 -.71677238        0.0   49.58112   1.349578   1.576441   6.764984   7.902176    .199495
                        .1E-5    .043536    .019987    .292373     .43505   1.002904    .013404    .008749   7368.576   147.3715
                          0.0        0.0        0.0        1.0        0.0
  14500     .0145  -5895.3327 2539.28679 3356.04506 -5895.3327 2539.28679 3356.04506 -67060.891 -333129.94 400190.833        0.0
                          0.0        0.0 -5908.6773 2545.56815  3363.1077 -67057.308 -333131.94 400189.244 -8454.2454 -817.53955
                   9271.78498 -8434.6195 -816.75827 9251.37776 266069.051 -733320.78 467251.724 .058376954 -.41128561 .352946018
                   -.07996435 .731470682 -.65150649        0.0   49.58112   1.349578   1.576441   6.764984   7.902176    .199495
                        .1E-5    .043536    .019987    .292373     .43505   1.002904    .013404    .008749   7368.576   147.3715
                          0.0        0.0        0.0        1.0        0.0
  % % % % % %   Suspended simulation;  plot data space exhausted;  SPY SPACE is required.   LIMBUF =  840000.
  % % % % % %   Suspended simulation;  plot data space exhausted;  SPY SPACE is required.   LIMBUF =  840000.
  +++  Time-sharing disabled.   Send  user-keyed interrupt to silence alarm.
   Current values.  INDBUF  INDBEG  LIMBUF  MFLUSH  NUMDCD  KCARD1  KCARD2
                    839994      50  840000    1000     230       1     231
Plot timespan now in memory (in sec) = 0.00000000E+00   1.49990000E-02
   ++++  Begin plot-data copy from memory to disk.   MFLUSH, INDBUF, N4, Tbeg,  Tend = 1001  839994       1  -1.00000E+00
1.00000E+19
  15000      .015  -5748.9837 1672.46282 4076.52047 -5748.9837 1672.46282 4076.52047 -3.5741003 -371229.56 371233.133        0.0
                          0.0        0.0 -5762.0922   1676.823 4085.26854 -.61533E-6 -371231.06  371231.06 -7438.9152 -2408.4455
                   9847.36072 -7421.4465 -2404.0577 9825.50414 371225.984 -742462.69 371236.707 .126685782 -.43282241 .306178019
                   -.20388622 .774085158 -.57019904        0.0   49.58112   1.349578   1.576441   6.764984   7.902176    .199495
                        .1E-5    .043536    .019987    .292373     .43505   1.002904    .013404    .008749   7368.576   147.3715
                          0.0        0.0        0.0        1.0        0.0
  15500     .0155  -5461.0762  764.45747 4696.61983 -5461.0762  764.45747 4696.61983 67053.8288 -400188.27 333134.442        0.0
                          0.0        0.0 -5473.6264 766.789908 4706.83807 67057.3081 -400189.24 333131.936 -6240.4163 -3940.0482
                   10180.4644 -6225.5337 -3932.1624 10157.6961 467242.097 -733322.71 266080.613 .191874271 -.44370138  .25187149
                   -.32278885  .79763932 -.47485096        0.0   49.58112   1.349578   1.576441   6.764984   7.902176    .199495
                        .1E-5    .043536    .019987    .292373     .43505   1.002904    .013404    .008749   7368.576   147.3715
                          0.0        0.0        0.0        1.0        0.0
  16000      .016  -5038.6991 -162.37187 5201.07199 -5038.6991 -162.37187 5201.07199 132460.142 -419293.02 286832.876        0.0
                          0.0        0.0  -5050.383 -162.12536 5212.50821 132463.443 -419293.44 286829.997 -4888.2576 -5374.6336
                   10262.8912 -4876.3273 -5363.4439 10239.7711 551753.158 -706125.89 154372.734 .252336763 -.44365425 .191364154
                   -.43374268 .801552851    -.36781        0.0   49.58112   1.349578   1.576441   6.764984   7.902176    .199495
                        .1E-5    .043536    .019987    .292373     .43505   1.002904    .013404    .008749   7368.576   147.3715
                          0.0        0.0        0.0        1.0        0.0
  16500     .0165  -4492.2491 -1085.2042 5577.45406 -4492.2491 -1085.2042 5577.45406 194604.854 -428073.38 233468.528        0.0
                          0.0        0.0 -4502.7794 -1087.0484 5589.82769 194607.888 -428073.24 233465.353  -3415.731 -6676.8761
                   10092.6071 -3407.0449 -6662.6583 10069.7032 622678.235 -661541.91 38863.6732 .306587197 -.43268336 .126143947
                   -.53401668 .785729576 -.25171309        0.0   49.58112   1.349578   1.576441   6.764984   7.902176    .199495
                        .1E-5    .043536    .019987    .292373     .43505   1.002904    .013404    .008749   7368.576   147.3715
                          0.0        0.0        0.0        1.0        0.0
  17000      .017  -3835.1866 -1981.3149 5816.50154 -3835.1866 -1981.3149 5816.50154 251957.744 -426313.16 174355.414        0.0
                          0.0        0.0  -3844.303  -1985.205 5829.50765 251960.441 -426312.46 174352.016 -1859.0979 -7814.7127
                   9673.81061 -1853.8717 -7797.8165 9651.68817   678270.9 -600668.57 -77602.331 .353289886   -.411059 .057816608
                    -.6211408 .750558823 -.12941833        0.0   49.58112   1.349578   1.576441   6.764984   7.902176    .199495
                        .1E-5    .043536    .019987    .292373     .43505   1.002904    .013404    .008749   7368.576   147.3715
                          0.0        0.0        0.0        1.0        0.0
  17500     .0175  -3083.6908 -2828.6379 5912.32904 -3083.6908 -2828.6379 5912.32904 303106.596 -414055.69 110949.092        0.0
                          0.0        0.0 -3091.1704 -2834.4777  5925.6482 303108.891 -414054.45 110945.554 -256.69275 -8760.1259
                   9016.81863 -255.05291 -8740.9669 8996.01983 717162.281 -525004.78  -192157.5 .391292688 -.37931278 -.01193395
                    -.6929708 .696906765 -.00393583        0.0   49.58112   1.349578   1.576441   6.764984   7.902176    .199495
                        .1E-5    .043536    .019987    .292373     .43505   1.002904    .013404    .008749   7368.576   147.3715
                          0.0        0.0        0.0        1.0        0.0
  18000      .018  -2256.2611 -3606.3108 5862.57318 -2256.2611 -3606.3108 5862.57318 346791.963 -391602.79 44810.8306        0.0
                          0.0        0.0 -2261.9209 -3613.9565 5875.87831 346793.795 -391601.04 44807.2448 1352.03564 -9489.8349
                   8137.79921 1350.04978  -9468.884 8118.83424 738394.755 -436413.62 -301981.13 .419660702 -.33822649 -.08139054
                    -.7477375 .626094687 .121642325        0.0   49.58112   1.349578   1.576441   6.764984   7.902176    .199495
                        .1E-5    .043536    .019987    .292373     .43505   1.002904    .013404    .008749   7368.576   147.3715
                          0.0        0.0        0.0        1.0        0.0
  18500     .0185   -1373.277 -4295.1848 5668.46212  -1373.277 -4295.1848 5668.46212 381938.157 -359507.34 -22430.819        0.0
                          0.0        0.0 -1376.9733 -4304.4489 5681.42305 381939.485 -359505.12 -22434.368 2927.47561  -9985.872
                   7058.39638 2921.90787 -9963.6469 7041.73908 741445.495 -337076.52 -404368.98 .437693694 -.28881133 -.14884194
                   -.78409256 .539866092 .244225951        0.0   49.58112   1.349578   1.576441   6.764984   7.902176    .199495
                        .1E-5    .043536    .019987    .292373     .43505   1.002904    .013404    .008749   7368.576   147.3715
                          0.0        0.0        0.0        1.0        0.0
  19000      .019  -456.47932 -4878.2968 5334.77512 -456.47932 -4878.2968 5334.77512  407679.77 -318559.62 -89120.149        0.0
                          0.0        0.0 -458.12142 -4888.9512 5347.07276 407680.557 -318556.98 -89123.572 4430.82981 -10236.024
                   5805.19418 4421.81749 -10213.072 5791.25444  726239.39 -229439.47 -496799.92 .444950089 -.23228524 -.21262922
                   -.80114053 .440344673 .360796076        0.0   49.58112   1.349578   1.576441   6.764984   7.902176    .199495
                        .1E-5    .043536    .019987    .292373     .43505   1.002904    .013404    .008749   7368.576   147.3715
                          0.0        0.0        0.0        1.0        0.0
  19500     .0195  471.558583 -5341.2879 4869.72911 471.558583 -5341.2879 4869.72911 423382.946  -269767.9 -153615.04        0.0
                          0.0        0.0 472.009996 -5353.0702 4881.06032  423383.18 -269764.92 -153618.26 5825.08024 -10234.131
                   4409.05032 5812.84646 -10211.017 4398.17053 693150.851 -116152.86 -576997.99 .441250917 -.17003969  -.2711812
                   -.79846167 .329979557 .468482021        0.0   49.58112   1.349578   1.576441   6.764984   7.902176    .199495
                        .1E-5    .043536    .019987    .292373     .43505   1.002904    .013404    .008749   7368.576   147.3715
                          0.0        0.0        0.0        1.0        0.0
  20000       .02    1387.985 -5672.7596 4284.77317   1387.985 -5672.7596 4284.77317 428661.028 -214333.61 -214327.42        0.0
                          0.0        0.0 1390.51957 -5685.3797 4294.85957 428660.705 -214330.35 -214330.35  7075.8993 -9980.2393
                   2904.34001 7060.74464 -9957.5328 2896.78816 642994.636 -6.1871143 -642988.45 .426685772 -.10360685 -.32305518
                   -.77612215 .211489448  .56463262        0.0   49.58112   1.349578   1.576441   6.764984   7.902176    .199495
                        .1E-5    .043536    .019987    .292373     .43505   1.002904    .013404    .008749   7368.576   147.3715
                          0.0        0.0        0.0        1.0        0.0
  20500     .0205  2270.23769 -5864.5481 3594.31247 2270.23769 -5864.5481 3594.31247 423384.061 -153621.71 -269762.35        0.0
                          0.0        0.0 2274.79056 -5877.6954 3602.90604  423383.18 -153618.26 -269764.92 8152.48591 -9480.6014
                   1328.11548 8134.78582 -9458.8606 1324.07478 577005.769 116140.643 -693146.41 .401614464 -.03462299 -.36697469
                   -.73467183 .087791985 .646879474        0.0   49.58112   1.349578   1.576441   6.764984   7.902176    .199495
                        .1E-5    .043536    .019987    .292373     .43505   1.002904    .013404    .008749   7368.576   147.3715
                          0.0        0.0        0.0        1.0        0.0
  21000      .021   3096.5844 -5911.9324 2815.34743  3096.5844 -5911.9324 2815.34743 407681.971 -89127.133 -318554.84        0.0
                          0.0        0.0 3103.04829 -5925.2836 2822.23557 407680.557 -89123.572 -318556.98 9028.33186 -8747.5191
                   -280.81271 9008.51685 -8727.2799 -281.23697 496809.103 229427.705 -726236.81 .366655368 .035213266  -.4018585
                   -.67513129 -.03806718 .713198111        0.0   49.58112   1.349578   1.576441   6.764984   7.902176    .199495
[...]
                        .1E-5    .043536    .019987    .292373     .43505   1.002904    .013404    .008749   7368.576   147.3715
                          0.0        0.0        0.0        1.0        0.0
 113000      .113  -256346.33 -183633.39 439979.721 -256346.33 -183633.39 439979.721 -256346.33 -183633.39  439979.72        0.0
                          0.0        0.0 -195073.84 -108852.17 303926.004 -251960.44 -174352.02 426312.457 -86221.673 -412778.17
                   498999.843 -72712.947 -623613.11 696326.054 -72712.947 -623613.11 696326.054 72.8182664 143.048321 -215.86659
                   -81.784112 82.8458817 -1.0617689        0.0   49.58112   1.349578   1.576441   6.764984   7.902176    .199495
                        .1E-5    .043536    .019987    .292373     .43505   1.002904    .013404    .008749   7368.576   147.3715
                          0.0        0.0        0.0        1.0        0.0
 113500     .1135  -183096.17 -213719.01 396815.179 -183096.17 -213719.01 396815.179 -183096.17 -213719.01  396815.18        0.0
                          0.0        0.0 -230040.51 -264753.58 494794.088 -194607.89 -233465.35  428073.24  34713.064 -759547.67
                   724834.601 30622.8488 -610534.19 579911.345 30622.8489 -610534.19 579911.346 -122.00252 -170.17782 292.180338
                    -86.07787 78.5748925 7.50300759        0.0   49.58112   1.349578   1.576441   6.764984   7.902176    .199495
                        .1E-5    .043536    .019987    .292373     .43505   1.002904    .013404    .008749   7368.576   147.3715
                          0.0        0.0        0.0        1.0        0.0
 114000      .114  -145400.06 -309015.98 454416.044 -145400.06 -309015.98 454416.044 -145400.06 -309015.98 454416.043        0.0
                          0.0        0.0 -115003.85 -281773.57 396777.417 -132463.44   -286830.  419293.44 166769.714 -678550.98
                    511781.27 163615.918 -763432.03 599816.108 163615.918 -763432.02 599816.107 134.368242 192.962788 -327.33103
                   -89.571311 72.3896528 17.1817165        0.0   49.58112   1.349578   1.576441   6.764984   7.902176    .199495
                        .1E-5    .043536    .019987    .292373     .43505   1.002904    .013404    .008749   7368.576   147.3715
                          0.0        0.0        0.0        1.0        0.0
 114500     .1145  -54038.318 -311321.33 365359.642 -54038.318 -311321.33 365359.642 -54038.319 -311321.33 365359.642        0.0
                          0.0        0.0 -45546.464 -288792.91 334339.371 -67057.308 -333131.94 400189.244 243246.444 -623132.28
                   379885.835 257283.008 -676680.97  419397.96 257283.008 -676680.97 419397.961  -141.1614 -161.35323 302.514634
                   -91.122331 65.9295105 25.1928067        0.0   49.58112   1.349578   1.576441   6.764984   7.902176    .199495
                        .1E-5    .043536    .019987    .292373     .43505   1.002904    .013404    .008749   7368.576   147.3715
                          0.0        0.0        0.0        1.0        0.0
 115000      .115  -17937.481   -399088. 417025.478 -17937.481   -399088. 417025.478 -17937.481   -399088. 417025.478        0.0
                          0.0        0.0 -55981.932 -458657.34 514639.269 .127058E-4 -371231.06  371231.06 402675.405 -973296.61
                   570621.201 381150.516 -816113.48 434962.959 381150.516 -816113.47 434962.959 123.702221 152.060235 -275.76246
                   -91.833609 57.8776583 33.9559879        0.0   49.58112   1.349578   1.576441   6.764984   7.902176    .199495
                        .1E-5    .043536    .019987    .292373     .43505   1.002904    .013404    .008749   7368.576   147.3715
                          0.0        0.0        0.0        1.0        0.0
 115500     .1155  90120.4711 -367093.77 276973.295 90120.4711 -367093.77 276973.295 90120.4709 -367093.77 276973.295        0.0
                          0.0        0.0 151607.564 -283399.61 131792.041 67057.3081 -400189.24 333131.936  435007.17 -415191.65
                   -19815.523 457214.238 -644067.06 186852.824 457214.238 -644067.06 186852.824 -106.53498 -82.901901 189.436883
                    -90.58584 49.7169609 40.8688352        0.0   49.58112   1.349578   1.576441   6.764984   7.902176    .199495
                        .1E-5    .043536    .019987    .292373     .43505   1.002904    .013404    .008749   7368.576   147.3715
                          0.0        0.0        0.0        1.0        0.0
 116000      .116  116468.477 -441985.46 325516.986 116468.477 -441985.46 325516.986 116468.477 -441985.46 325516.986        0.0
                          0.0        0.0 48224.2036 -531775.72 483551.522 132463.443 -419293.44 286829.997 579999.928 -.101533E7
                   435327.318  558453.94 -767502.45 209048.509  558453.94 -767502.45 209048.509 55.2039153 56.5480477 -111.75196
                   -88.343581 40.6765235 47.6670582        0.0   49.58112   1.349578   1.576441   6.764984   7.902176    .199495
                        .1E-5    .043536    .019987    .292373     .43505   1.002904    .013404    .008749   7368.576   147.3715
                          0.0        0.0        0.0        1.0        0.0
 116500     .1165  217587.542 -399170.32 181582.776 217587.542 -399170.32 181582.776 217587.542 -399170.32 181582.775        0.0
                          0.0        0.0 271471.475 -335578.11 64106.6423 194607.888 -428073.24 233465.353 607049.589 -399684.76
                   -207364.83 616757.859 -580753.09 -36004.767 616757.859 -580753.09 -36004.767 -3.5855474 68.6316703 -65.046123
                   -84.518739  31.494317 53.0244223        0.0   49.58112   1.349578   1.576441   6.764984   7.902176    .199495
                        .1E-5    .043536    .019987    .292373     .43505   1.002904    .013404    .008749   7368.576   147.3715
                          0.0        0.0        0.0        1.0        0.0
 117000      .117  222079.754 -462936.78 240857.027 222079.754 -462936.78 240857.027 222079.754 -462936.78 240857.027        0.0
                          0.0        0.0 185706.088 -503668.16 317962.068 251960.441 -426312.46 174352.016 689374.247 -821630.23
                    132255.98 685016.537 -703793.81 18777.2734 685016.537 -703793.81 18777.2738 -72.067607  -86.93274 159.000346
                   -79.414276 22.4539652  56.960312        0.0   49.58112   1.349578   1.576441   6.764984   7.902176    .199495
                        .1E-5    .043536    .019987    .292373     .43505   1.002904    .013404    .008749   7368.576   147.3715
                          0.0        0.0        0.0        1.0        0.0
 117500     .1175  338225.599  -373271.7 35046.0977 338225.599  -373271.7 35046.0977 338225.599  -373271.7 35046.0971        0.0
                          0.0        0.0 337416.559 -385794.52 48377.9629 303108.891 -414054.45 110945.554 723211.081 -434172.49
                    -289038.6 711497.296 -408317.79  -303179.5 711497.296 -408317.79  -303179.5 107.411267 210.691182 -318.10245
                   -73.440192 13.0994114 60.3407594        0.0   49.58112   1.349578   1.576441   6.764984   7.902176    .199495
                        .1E-5    .043536    .019987    .292373     .43505   1.002904    .013404    .008749   7368.576   147.3715
                          0.0        0.0        0.0        1.0        0.0
 118000      .118  318563.189 -423271.66 104708.475 318563.189 -423271.66 104708.475 318563.189 -423271.66 104708.475        0.0
                          0.0        0.0 346656.648 -379373.92 32717.2694 346793.795 -391601.04 44807.2447 726030.564 -412091.19
                   -313939.38 741834.853 -527980.14 -213854.71 741834.853 -527980.14 -213854.71 -171.09609 -169.94166 341.037753
                   -65.979007 4.87436135 61.1046464        0.0   49.58112   1.349578   1.576441   6.764984   7.902176    .199495
                        .1E-5    .043536    .019987    .292373     .43505   1.002904    .013404    .008749   7368.576   147.3715
                          0.0        0.0        0.0        1.0        0.0
 118500     .1185  399082.973  -343966.8  -55116.17 399082.973  -343966.8  -55116.17 399082.973  -343966.8 -55116.171        0.0
                          0.0        0.0 357958.175  -406443.3 48485.1232 381939.485 -359505.12 -22434.368 764401.471 -454928.42
                   -309473.05 743049.773 -288850.63 -454199.14 743049.772 -288850.63 -454199.14 160.753239 266.445516 -427.19876
                   -58.355561 -3.6184384 61.9740434        0.0   49.58112   1.349578   1.576441   6.764984   7.902176    .199495
                        .1E-5    .043536    .019987    .292373     .43505   1.002904    .013404    .008749   7368.576   147.3715
                          0.0        0.0        0.0        1.0        0.0
 119000      .119  391991.542 -334351.11 -57640.431 391991.542 -334351.11 -57640.431 391991.542 -334351.11  -57640.43        0.0
                          0.0        0.0 439104.238 -270736.79 -168367.45 407680.557 -318556.98 -89123.572 709841.024 -102369.33
                   -607471.69 726342.653 -276710.68 -449631.97 726342.653 -276710.68 -449631.97 -181.22413 -132.24433 313.468461
                   -49.386475 -10.414865 59.8013537        0.0   49.58112   1.349578   1.576441   6.764984   7.902176    .199495
                        .1E-5    .043536    .019987    .292373     .43505   1.002904    .013404    .008749   7368.576   147.3715
                          0.0        0.0        0.0        1.0        0.0
 119500     .1195  419243.486 -279178.54 -140064.95 419243.486 -279178.54 -140064.95 419243.486 -279178.54 -140064.95        0.0
                          0.0        0.0 389573.408 -320653.39 -68920.012  423383.18 -269764.92 -153618.26 710226.802 -251733.38
                   -458493.42 698422.025 -139113.59 -559308.43 698422.025 -139113.59 -559308.43  84.037286 160.098473 -244.13576
                   -40.649778 -16.966681 57.6164311        0.0   49.58112   1.349578   1.576441   6.764984   7.902176    .199495
                        .1E-5    .043536    .019987    .292373     .43505   1.002904    .013404    .008749   7368.576   147.3715
                          0.0        0.0        0.0        1.0        0.0
  % % % % % %   Suspended simulation;  plot data space exhausted;  SPY SPACE is required.   LIMBUF =  840000.
  % % % % % %   Suspended simulation;  plot data space exhausted;  SPY SPACE is required.   LIMBUF =  840000.
  +++  Time-sharing disabled.   Send  user-keyed interrupt to silence alarm.
   Current values.  INDBUF  INDBEG  LIMBUF  MFLUSH  NUMDCD  KCARD1  KCARD2
                    839994      50  840000    1007     230       1     231
Plot timespan now in memory (in sec) = 1.04985997E-01   1.19985000E-01
   ++++  Begin plot-data copy from memory to disk.   MFLUSH, INDBUF, N4, Tbeg,  Tend = 1008  839994       1  -1.00000E+00
1.00000E+19
 120000       .12  448588.815 -188007.52 -260581.29 448588.815 -188007.52 -260581.29 448588.815 -188007.52 -260581.29        0.0
                          0.0        0.0 467922.268 -166471.32 -301450.95 428660.705 -214330.35 -214330.35 634393.586 134979.632
                   -769373.22 636596.336 72573.7724 -709170.11 636596.336 72573.7725 -709170.11 -74.097409 41.1278542  32.969554
                   -31.269091 -21.954439 53.2235593        0.0   49.58112   1.349578   1.576441   6.764984   7.902176    .199495
                        .1E-5    .043536    .019987    .292373     .43505   1.002904    .013404    .008749   7368.576   147.3715
                          0.0        0.0        0.0        1.0        0.0

Extrema of output variables follow.   Order and column positioning are the same as for the preceding time-step loop output.
Variable maxima :  532731.534 581541.621 728373.546 532731.534 581541.621 728373.546 532731.535  581541.62 728373.545        0.0
                          0.0        0.0 618848.345  786569.23 920164.615 428660.705 428660.703 428660.703 818172.547 .1679548E7
                   .1533804E7 774696.917 .1192163E7 .1132002E7 774696.917 .1192163E7 .1132002E7 612.045382 980.669887 1648.92104
                   22.5644524 103.683021 63.9441142        0.0   49.58112   1.349578   1.576441   6.764984   7.902176    .199495
                        .1E-5    .043536    .019987    .292373     .43505   1.002904    .013404    .008749   7368.576   147.3715
                          0.0        0.0        0.0        1.0        0.0
Times of maxima :     .060106    .047636    .052796    .060106    .047636    .052796    .060106    .047636    .052796        0.0
                          0.0        0.0    .060291    .046427    .051599        0.0    .006667    .113333    .058662    .045284
                      .051597    .058482    .044044    .052795    .058482    .044044    .052795    .051842    .045016    .046681
                      .105101    .051317    .058664        0.0        0.0        0.0        0.0        0.0        0.0        0.0
                          0.0        0.0        0.0        0.0        0.0        0.0        0.0        0.0        0.0        0.0
                          0.0        0.0        0.0        0.0        0.0
Variable minima :  -549216.35 -577944.17 -729078.85 -549216.35 -577944.17 -729078.85 -549216.35 -577944.17 -729078.85        0.0
                          0.0        0.0 -651045.45  -744953.8 -.101147E7 -428660.71  -428660.7  -428660.7 -827825.09 -.157371E7
                   -.145138E7 -780321.99 -.112698E7 -.105637E7 -780321.99 -.112698E7 -.105637E7 -786.76977 -864.56818 -1574.6049
                   -107.40971 -25.769698 -54.473238        0.0   49.58112   1.349578   1.576441   6.764984   7.902176    .199495
                        .1E-5    .043536    .019987    .292373     .43505   1.002904    .013404    .008749   7368.576   147.3715
                          0.0        0.0        0.0        1.0        0.0
Times of minima :     .049206    .057408    .044042    .049206    .057408    .044042    .049206    .057408    .044042        0.0
                          0.0        0.0    .050405    .056198    .044217        .01    .016667    .103333     .04888    .056197
                      .061374    .048727    .054999    .062584    .048727    .054999    .062584    .046675    .046685    .045009
                      .055075    .101379    .088082        0.0        0.0        0.0        0.0        0.0        0.0        0.0
                          0.0        0.0        0.0        0.0        0.0        0.0        0.0        0.0        0.0        0.0
                          0.0        0.0        0.0        0.0        0.0

Blank card terminating all plot cards.            |BLANK PLOT

Memory storage figures for the preceding, now-completed data case.  -------------------------------  Present   Program
A value of  "-9999"  indicates that no figure is available.         28-Feb-22  20:49:46              figure     limit  (name)
     Size List 1.   Number of electric network nodes.                                                   37      6000  (LBUS)
     Size List 2.   Number of electric network branches.                                                39     10000  (LBRNCH)
     Size List 3.   Number of data values in R, L, C tables.                                            45    192000  (LDATA)
     Size List 4.   Number of electric network sources.                                                  3       900  (LEXCT)
     Size List 5.   Storage for [Y] and triangularized [Y].   No. times =    3     Factors =    66     189    420000  (LYMAT)
     Size List 6.   Number of entries in switch table.                  No. flops = 18                  21      1200  (LSWTCH)
     Size List 7.   Number of distinct ALPHANUMERIC data names plus program SPY variables.              25     15000  (LSIZE7)
     Size List 8.   History points of distributed lines.                                               694    120000  (LPAST)
     Size List 9.   Number of nonlinear elements.                                                        0      2250  (LNONL)
     Size List 10.  Points of nonlinear characteristics.                                                 0      3800  (LCHAR)
     Size List 11.  Number of Type-59 S.M. outputs.                                                      0       720  (LSMOUT)
     Size List 12.  Total number of EMTP output variables.                                              55      2000  (LSIZ12)
     Size List 13.  Working space for batch/SPY plotting.                                            -9999     72800  (LSIZ13)
     Size List 14.  S.M./U.M. connections to TACS.                                                   -9999       510  (LBSTAC)
     Size List 15.  Character storage in bytes for MODELS.                                            3299     90000  (LCTACS)
     Size List 16.  Total number of Type-59 S.M. masses.                                                 0       800  (LIMASS)
     Size List 17.  Number of Type-59 Synchronous machines.                                              0        90  (LSYN)
     Size List 18.  Branch and switch power/energy outputs.                                              0       254  (MAXPE)
     Size List 19.  Total floating-point TACS table space.                                              23    120000  (LTACST)
     Size List 20.  Non-copied recursive convolution data.                                               0    100000  (LFSEM)
     Size List 21.  Total modal/phase [T] matrix storage.                                                9      3000  (LFD)
     Size List 22.  Total recursive convolution history.                                                 0     15000  (LHIST)
     Size List 23.  Giant vectors for renumbering, phasors;  also extrema accumulation.                  93    192000  (LSIZ23)
     Size List 24.  Peak phases of compensation for data.                                                0       120  (LCOMP)
     Size List 25.  Total table space for all U.M usage.                                             -9999     45000  (LSPCUM)
     Size List 26.  Square of max number of coupled phases.                                              9    260000  (LSIZ26)
     Size List 27.  Maximum number of MODELS top variables.                                             44       600  (LSIZ27)
     Size List 28.  MODELS.  Total work space is divided into INTEGER and REAL.  1st, REAL:           1780    210000  (LRTACS)
                             Second  and last,  statistics for INTEGER work space.                    6838         0  (LITACS)
     Size List 29.  RAM disk used by "TAPSAV" table saving (limit is "LABCOM" size LTLABL).          -9999       600  (LSIZ29)
     Size List 30.  Taku Noda frequency-dependent circuits.                                              0        19  (LSIZ30)
Timing figures characterizing central processor (CP) solution speed.  ----------------------------   CP sec  Wait sec  Real sec
     Data input time (through blank card ending branches) ....                                       0.016     0.000     0.016
     Node renumbering and phasor solution  ....                                                      0.047     0.000     0.047
     After phasor solution, but before time-step loop  ....                                          0.000     0.000     0.000
     Integration of equations (time-step loop)  ....                                                 0.734     0.000     0.734
     Plotting or STATISTICS termination overlays ....                                                0.000     0.000     0.000
                                                                                                    ---------------------------
                                                                                          Totals      0.797     0.000     0.797

