   ---   236   cards of disk file read into card cache cells  1   onward.
 Comment card is ignored.      |C   LBUS  LBRNCH   LDATA   LEXCT   LYMAT  LSWTCH
 Limit CIDEAL cards =   200    |CARDS        200 { Limit of CIDEAL will be 2 mor
 1st card (Lists  1-10).       |    6000   10000  192000     900  420000    120
 Comment card is ignored.      |C LSMOUT  LSIZ12  LSIZ13  LBSTAC  LCTACS  LIMASS
 2nd card (Lists 11-20).       |     720    2000   72800     510   90000     80
 Comment card is ignored.      |C    LFD   LHIST  LSIZ23   NCOMP  LSPCUM  LSIZ26
 3rd card (Lists 21-30).       |    3000   15000  192000     120   45000  26000
 4th card (Lists 31-32).       |     200     300     { Optional card for Lists
 Comment card is ignored.      |C  LWORK  LMARTI
 Supplemental offsets.         |  840000     742
 <===> Done with  "/"-card sorting by data class.    Remember that the source file appears different from interpreted input data.
Alternative Transients Program (ATP),  GNU Linux or DOS.  All rights reserved by Can/Am user group of Portland, Oregon, USA.
 Date (dd-mth-yy) and time of day (hh.mm.ss) = 28-Feb-22  19:03:52   Name of disk plot file is  atp\bdfinalisima\energizacion66.pl4
Consult the 860-page ATP Rule Book of the Can/Am EMTP User Group in Portland,  Oregon, USA.  Source code date is 12 August 2008.
Total size of LABCOM tables = 10913436 INTEGER words.  31 VARDIM  List Sizes follow:  6002  10K  192K  900  420K  1200  15K
  120K  2250  3800  720  2K  72800  510  90K  800  90  254  120K  100K  3K  15K  192K  120  45K  260K  600  210K  1100  60  200
--------------------------------------------------+--------------------------------------------------------------------------------
Descriptive interpretation of input data cards.   |  Input data card images are shown below, all 80 columns, character by character
                                                  0         1         2         3         4         5         6         7         8
                                                  012345678901234567890123456789012345678901234567890123456789012345678901234567890
--------------------------------------------------+--------------------------------------------------------------------------------
Comment card.   NUMDCD = 1.                       |C data:D:\ATP\BDFINALISIMA\ENERGIZACION66.ATP
Marker card preceding new EMTP data case.         |BEGIN NEW DATA CASE
Comment card.   NUMDCD = 3.                       |C --------------------------------------------------------
Comment card.   NUMDCD = 4.                       |C Generated by ATPDRAW  febrero, lunes 28, 2022
Comment card.   NUMDCD = 5.                       |C A Bonneville Power Administration program
Comment card.   NUMDCD = 6.                       |C by H. K. Høidalen at SEfAS/NTNU - NORWAY 1994-2016
Comment card.   NUMDCD = 7.                       |C --------------------------------------------------------
Comment card.   NUMDCD = 8.                       |C  dT  >< Tmax >< Xopt >< Copt ><Epsiln>
Misc. data.     1.000E-06   1.200E-01   5.000E+01 |   1.E-6     .12     50.
Misc. data.    500    1  0  1  1  0  0  0  0  0   |     500       1       0       1       1       0       0       0       0
  ///  Warning.  Nonzero XOPT or COPT differs from the power frequency of  6.00000000E+01  Hz.   Did the user really want this?
No TACS data,  but MODELS data begins (next).     |MODELS
      Another ordinary MODELS data card.          |OUTPUT
      Another ordinary MODELS data card.          |  AnVol
      Another ordinary MODELS data card.          |  LONG
      Another ordinary MODELS data card.          |  R0F
      Another ordinary MODELS data card.          |  R1F
      Another ordinary MODELS data card.          |  X0F
      Another ordinary MODELS data card.          |  X1F
      Another ordinary MODELS data card.          |  RDIVX
      Another ordinary MODELS data card.          |  RINSER
      Another ordinary MODELS data card.          |  CLOSE1
      Another ordinary MODELS data card.          |  RPpos
      Another ordinary MODELS data card.          |  RPcero
      Another ordinary MODELS data card.          |  LPpos
      Another ordinary MODELS data card.          |  LPcero
      Another ordinary MODELS data card.          |  CPpos
      Another ordinary MODELS data card.          |  CPcero
      Another ordinary MODELS data card.          |  Xp
      Another ordinary MODELS data card.          |  CR
      Another ordinary MODELS data card.          |  SIMET
      Another ordinary MODELS data card.          |  ENC1
      Another ordinary MODELS data card.          |  ENC2
      Another ordinary MODELS data card.          |  ENC1AS
      Another ordinary MODELS data card.          |  ENC2AS
      Another ordinary MODELS data card.          |MODEL DEFAULT
      Another ordinary MODELS data card.          |DATA AnVol,LONG,R0F,R1F,X0F,X1F,RDIVX,RINSER,CLOSE1,RPpos,RPcero,LPpos,LPcero
      Another ordinary MODELS data card.          |OUTPUT o1,o2,o3, o4, o5, o6, o7, o8, o9, o10, o11, o12, o13
      Another ordinary MODELS data card.          |VAR o1,o2,o3, o4, o5, o6, o7, o8, o9, o10, o11, o12, o13
      Another ordinary MODELS data card.          |INIT
      Another ordinary MODELS data card.          |  o1:=AnVol
      Another ordinary MODELS data card.          |  o2:=LONG
      Another ordinary MODELS data card.          |  o3:=R0F
      Another ordinary MODELS data card.          |  o4:=R1F
      Another ordinary MODELS data card.          |  o5:=X0F
      Another ordinary MODELS data card.          |  O6:=X1F
      Another ordinary MODELS data card.          |  o7:=RDIVX
      Another ordinary MODELS data card.          |  o8:=RINSER
      Another ordinary MODELS data card.          |  o9:=CLOSE1
      Another ordinary MODELS data card.          |  o10:=RPpos
      Another ordinary MODELS data card.          |  o11:=RPcero
      Another ordinary MODELS data card.          |  o12:=LPpos
      Another ordinary MODELS data card.          |  o13:=LPcero
      Another ordinary MODELS data card.          |
      Another ordinary MODELS data card.          |ENDINIT
      Another ordinary MODELS data card.          |EXEC
      Another ordinary MODELS data card.          |ENDEXEC
      Another ordinary MODELS data card.          |ENDMODEL
      Another ordinary MODELS data card.          |MODEL DEFAULT1
      Another ordinary MODELS data card.          |DATA CPpos,CPcero,Xp,CR,SIMET,ENC1,ENC2,ENC1AS,ENC2AS
      Another ordinary MODELS data card.          |OUTPUT o1, o2, o3, o4, o5, o6, o7, o8, o9
      Another ordinary MODELS data card.          |VAR o1, o2, o3, o4, o5, o6, o7, o8, o9
      Another ordinary MODELS data card.          |INIT
      Another ordinary MODELS data card.          |  o1:=CPpos
      Another ordinary MODELS data card.          |  o2:=CPcero
      Another ordinary MODELS data card.          |  o3:=Xp
      Another ordinary MODELS data card.          |  o4:=CR
      Another ordinary MODELS data card.          |  o5:=SIMET
      Another ordinary MODELS data card.          |  o6:=ENC1
      Another ordinary MODELS data card.          |  o7:=ENC2
      Another ordinary MODELS data card.          |  o8:=ENC1AS
      Another ordinary MODELS data card.          |  o9:=ENC2AS
      Another ordinary MODELS data card.          |
      Another ordinary MODELS data card.          |ENDINIT
      Another ordinary MODELS data card.          |EXEC
      Another ordinary MODELS data card.          |ENDEXEC
      Another ordinary MODELS data card.          |ENDMODEL
      Another ordinary MODELS data card.          |USE DEFAULT AS DEFAULT
      Another ordinary MODELS data card.          |DATA
      Another ordinary MODELS data card.          |  AnVol:=      0.0
      Another ordinary MODELS data card.          |  LONG:= 344.3371
      Another ordinary MODELS data card.          |  R0F:= 4.166237
      Another ordinary MODELS data card.          |  R1F:= 3.286123
      Another ordinary MODELS data card.          |  X0F:= 15.55335
      Another ordinary MODELS data card.          |  X1F:= 12.26772
      Another ordinary MODELS data card.          |  RDIVX:= 0.267867
      Another ordinary MODELS data card.          |  RINSER:=     420.
      Another ordinary MODELS data card.          |  CLOSE1:= 0.046454
      Another ordinary MODELS data card.          |  RPpos:= 0.020997
      Another ordinary MODELS data card.          |  RPcero:= 0.302069
      Another ordinary MODELS data card.          |  LPpos:= 0.211173
      Another ordinary MODELS data card.          |  LPcero:= 1.471675
      Another ordinary MODELS data card.          |OUTPUT
      Another ordinary MODELS data card.          |  AnVol:=o1
      Another ordinary MODELS data card.          |  LONG:=o2
      Another ordinary MODELS data card.          |  R0F:=o3
      Another ordinary MODELS data card.          |  R1F:=o4
      Another ordinary MODELS data card.          |  X0F:=o5
      Another ordinary MODELS data card.          |  X1F:=o6
      Another ordinary MODELS data card.          |  RDIVX:=o7
      Another ordinary MODELS data card.          |  RINSER:=o8
      Another ordinary MODELS data card.          |  CLOSE1:=o9
      Another ordinary MODELS data card.          |  RPpos:=o10
      Another ordinary MODELS data card.          |  RPcero:=o11
      Another ordinary MODELS data card.          |  LPpos:=o12
      Another ordinary MODELS data card.          |  LPcero:=o13
      Another ordinary MODELS data card.          |ENDUSE
      Another ordinary MODELS data card.          |USE DEFAULT1 AS DEF
      Another ordinary MODELS data card.          |DATA
      Another ordinary MODELS data card.          |  CPpos:= 0.008772
      Another ordinary MODELS data card.          |  CPcero:=   0.0093
      Another ordinary MODELS data card.          |  Xp:= 1621.309
      Another ordinary MODELS data card.          |  CR:= 32.42619
      Another ordinary MODELS data card.          |  SIMET:=       1.
      Another ordinary MODELS data card.          |  ENC1:=      0.0
      Another ordinary MODELS data card.          |  ENC2:=      0.0
      Another ordinary MODELS data card.          |  ENC1AS:=      0.0
      Another ordinary MODELS data card.          |  ENC2AS:=      0.0
      Another ordinary MODELS data card.          |OUTPUT
      Another ordinary MODELS data card.          |  CPpos:=o1
      Another ordinary MODELS data card.          |  CPcero:=o2
      Another ordinary MODELS data card.          |  Xp:=o3
      Another ordinary MODELS data card.          |  CR:=o4
      Another ordinary MODELS data card.          |  SIMET:=o5
      Another ordinary MODELS data card.          |  ENC1:=o6
      Another ordinary MODELS data card.          |  ENC2:=o7
      Another ordinary MODELS data card.          |  ENC1AS:=o8
      Another ordinary MODELS data card.          |  ENC2AS:=o9
      Another ordinary MODELS data card.          |ENDUSE
      Another ordinary MODELS data card.          |RECORD
      Another ordinary MODELS data card.          |  DEFAULT.o1 AS AnVOL
      Another ordinary MODELS data card.          |  DEFAULT.o2 AS LONG
      Another ordinary MODELS data card.          |  DEFAULT.o3 AS R0F
      Another ordinary MODELS data card.          |  DEFAULT.o4 AS R1F
      Another ordinary MODELS data card.          |  DEFAULT.o5 AS X0F
      Another ordinary MODELS data card.          |  DEFAULT.o6 AS X1F
      Another ordinary MODELS data card.          |  DEFAULT.o7 AS RDIVX
      Another ordinary MODELS data card.          |  DEFAULT.o8 AS RINSER
      Another ordinary MODELS data card.          |  DEFAULT.o9 AS CLOSE1
      Another ordinary MODELS data card.          |  DEFAULT.o10 AS RPpos
      Another ordinary MODELS data card.          |  DEFAULT.o11 AS RPcero
      Another ordinary MODELS data card.          |  DEFAULT.o12 AS LPpos
      Another ordinary MODELS data card.          |  DEFAULT.o13 AS LPcero
      Another ordinary MODELS data card.          |  DEF.o1 AS CPpos
      Another ordinary MODELS data card.          |  DEF.o2 AS CPcero
      Another ordinary MODELS data card.          |  DEF.o3 AS Xp
      Another ordinary MODELS data card.          |  DEF.o4 AS CR
      Another ordinary MODELS data card.          |  DEF.o5 AS SIMET
      Another ordinary MODELS data card.          |  DEF.o6 AS ENC1
      Another ordinary MODELS data card.          |  DEF.o7 AS ENC2
      Another ordinary MODELS data card.          |  DEF.o8 AS ENC1AS
      Another ordinary MODELS data card.          |  DEF.o9 AS ENC2AS
Termination of data for Laurent Dube`s MODELS.    |ENDMODELS
Comment card.   NUMDCD = 153.                     |C        1         2         3         4         5         6         7         8
Comment card.   NUMDCD = 154.                     |C 345678901234567890123456789012345678901234567890123456789012345678901234567890
Optional blank card follows last of MODELS data.  |BLANK MODELS
Comment card.   NUMDCD = 156.                     |C < n1 >< n2 ><ref1><ref2>< R  >< L  >< C  >
Comment card.   NUMDCD = 157.                     |C < n1 >< n2 ><ref1><ref2>< R  >< A  >< B  ><Leng><><>0
1st of coupled R-L.   4.16620E+00  4.95079E-02    |51IFUENASB1A              4.166215.553354763
2nd coil. 3.286E+00 3.905E-02 0.000E+00 0.000E+00 |52IFUENBSB1B              3.286112.267721488
Zca, Zcc= 2.934E-01 3.486E-03 3.579E+00 4.254E-02 |53IFUENCSB1C
Series R-L-C.   1.000E+09  0.000E+00  0.000E+00   |  SB1A                      1.E9                                               0
Series R-L-C.   1.000E+09  0.000E+00  0.000E+00   |  SB1B                      1.E9                                               0
Series R-L-C.   1.000E+09  0.000E+00  0.000E+00   |  SB1C                      1.E9                                               0
Series R-L-C.   1.000E+09  0.000E+00  0.000E+00   |  RSNSHA                    1.E9                                               0
Series R-L-C.   1.000E+09  0.000E+00  0.000E+00   |  RSNSHB                    1.E9                                               0
Series R-L-C.   1.000E+09  0.000E+00  0.000E+00   |  RSNSHC                    1.E9                                               0
Series R-L-C.   1.000E+09  0.000E+00  0.000E+00   |  RSNNHA                    1.E9                                               0
Series R-L-C.   1.000E+09  0.000E+00  0.000E+00   |  RSNNHB                    1.E9                                               0
Series R-L-C.   1.000E+09  0.000E+00  0.000E+00   |  RSNNHC                    1.E9                                               0
Series R-L-C.   1.000E+09  0.000E+00  0.000E+00   |  SE2A                      1.E9                                               0
Series R-L-C.   1.000E+09  0.000E+00  0.000E+00   |  SE2B                      1.E9                                               0
Series R-L-C.   1.000E+09  0.000E+00  0.000E+00   |  SE2C                      1.E9                                               0
Series R-L-C.   2.500E+02  0.000E+00  3.000E-10   |  X0001B                    250.       .0003                                   0
Series R-L-C.   2.500E+02  0.000E+00  3.000E-10   |  X0002B                    250.       .0003                                   0
Series R-L-C.   1.000E-06  0.000E+00  0.000E+00   |  X0001ALN1A               1.E-6                                               0
Series R-L-C.   1.000E-06  0.000E+00  0.000E+00   |  SB1A  X0002A             1.E-6                                               0
Series R-L-C.   1.000E-06  0.000E+00  0.000E+00   |  X0001BLN1B               1.E-6                                               0
Series R-L-C.   1.000E-06  0.000E+00  0.000E+00   |  SB1B  X0002B             1.E-6                                               0
Series R-L-C.   1.000E-06  0.000E+00  0.000E+00   |  X0001CLN1C               1.E-6                                               0
Series R-L-C.   1.000E-06  0.000E+00  0.000E+00   |  SB1C  X0002C             1.E-6                                               0
Series R-L-C.   4.200E+02  0.000E+00  0.000E+00   |  XX0005X0002A              420.                                               0
Series R-L-C.   4.200E+02  0.000E+00  0.000E+00   |  XX0003X0002B              420.                                               0
Series R-L-C.   4.200E+02  0.000E+00  0.000E+00   |  XX0004X0002C              420.                                               0
Series R-L-C.   2.500E+02  0.000E+00  3.000E-10   |  X0001A                    250.       .0003                                   0
Series R-L-C.   1.000E+06  0.000E+00  0.000E+00   |  X0001AX0002A              1.E6                                               0
Series R-L-C.   1.000E+06  0.000E+00  0.000E+00   |  X0001BX0002B              1.E6                                               0
Series R-L-C.   1.000E+06  0.000E+00  0.000E+00   |  X0001CX0002C              1.E6                                               0
Series R-L-C.   2.500E+02  0.000E+00  3.000E-10   |  X0002C                    250.       .0003                                   0
Series R-L-C.   2.500E+02  0.000E+00  3.000E-10   |  X0002A                    250.       .0003                                   0
Series R-L-C.   2.500E+02  0.000E+00  3.000E-10   |  X0001C                    250.       .0003                                   0
Series R-L-C.   1.250E+02  0.000E+00  6.000E-10   |  X0001AX0002A              125.       .0006                                   0
Series R-L-C.   1.250E+02  0.000E+00  6.000E-10   |  X0001BX0002B              125.       .0006                                   0
Series R-L-C.   1.250E+02  0.000E+00  6.000E-10   |  X0001CX0002C              125.       .0006                                   0
 3.021E-01 1.472E+00 9.300E-03 7.097E+02 2.273E-03|-1LN1A  VFF2A             .302071.4717 .0093344.34 0 0                         0
 2.100E-02 2.112E-01 8.770E-03 2.768E+02 8.360E-04|-2LN1B  VFF2B               .021.21117.00877344.34 0 0                         0
3rd or later transposed distributed phase.        |-3LN1C  VFF2C                                                                  0
Blank card ending branches.  IBR, NTOT = 39  31   |BLANK BRANCH
Comment card.   NUMDCD = 198.                     |C < n 1>< n 2>< Tclose ><Top/Tde ><   Ie   ><Vf/CLOP ><  type  >
Switch.  -1.00E+00  1.00E+01  0.00E+00  0.00E+00  |  LN1A  COMPA        -1.       10.                                             0
Switch.  -1.00E+00  1.00E+01  0.00E+00  0.00E+00  |  LN1B  COMPB        -1.       10.                                             0
Switch.  -1.00E+00  1.00E+01  0.00E+00  0.00E+00  |  LN1C  COMPC        -1.       10.                                             0
Switch.  -1.00E+00  1.00E+01  0.00E+00  0.00E+00  |  VFF2A RSNNHA       -1.       10.                                             0
Switch.  -1.00E+00  1.00E+01  0.00E+00  0.00E+00  |  VFF2B RSNNHB       -1.       10.                                             0
Switch.  -1.00E+00  1.00E+01  0.00E+00  0.00E+00  |  VFF2C RSNNHC       -1.       10.                                             0
Switch.   2.00E+00 -1.00E+00  0.00E+00  0.00E+00  |  VFF2A SE2A          2.       -1.                                             0
Switch.   2.00E+00 -1.00E+00  0.00E+00  0.00E+00  |  VFF2B SE2B          2.       -1.                                             0
Switch.   2.00E+00 -1.00E+00  0.00E+00  0.00E+00  |  VFF2C SE2C          2.       -1.                                             0
Switch.   4.65E-02  1.00E+03  0.00E+00  0.00E+00  |  X0001BXX0003.046453616      1.E3                                             0
Switch.   4.65E-02  1.00E+03  0.00E+00  0.00E+00  |  X0001CXX0004.046453616      1.E3                                             0
Switch.   5.40E-02  1.00E+03  0.00E+00  0.00E+00  |  XX0005X0002A.053953616      1.E3                                             0
Switch.   5.40E-02  1.00E+03  0.00E+00  0.00E+00  |  XX0003X0002B.053953616      1.E3                                             0
Switch.   5.40E-02  1.00E+03  0.00E+00  0.00E+00  |  XX0004X0002C.053953616      1.E3                                             0
Switch.   4.65E-02  1.00E+03  0.00E+00  0.00E+00  |  X0001AXX0005.046453616      1.E3                                             0
Permanently-closed switch used for metering.      |  VFUENAIFUENA                                        MEASURING                1
Permanently-closed switch used for metering.      |  VFUENBIFUENB                                        MEASURING                1
Permanently-closed switch used for metering.      |  VFUENCIFUENC                                        MEASURING                1
Permanently-closed switch used for metering.      |  COMPA RSNSHA                                        MEASURING                1
Permanently-closed switch used for metering.      |  COMPB RSNSHB                                        MEASURING                1
Permanently-closed switch used for metering.      |  COMPC RSNSHC                                        MEASURING                1
Blank card ending switches.   KSWTCH = 21.        |BLANK SWITCH
Comment card.   NUMDCD = 221.                     |C < n 1><>< Ampl.  >< Freq.  ><Phase/T0><   A1   ><   T1   >< TSTART >< TSTOP  >
Source.   4.29E+05  5.00E+01  0.00E+00 -1.00E+00  |14VFUENA  428660.705       50.                                     -1.      100.
Source.   4.29E+05  5.00E+01 -1.20E+02 -1.00E+00  |14VFUENB  428660.705       50.     -120.                           -1.      100.
Source.   4.29E+05  5.00E+01 -2.40E+02 -1.00E+00  |14VFUENC  428660.705       50.     -240.                           -1.      100.
Blank card ends electric sources.  KCONST = 3     |BLANK SOURCE
Pi-equivalent branches of distributed circuits are added to the table of List Size 3 between indices  40   and  45.

Sinusoidal steady-state phasor solution, branch by branch.   All flows are away from a bus,  and the real part,  magnitude,  or  "P"
is printed above the imaginary part,  the angle,  or  "Q".   The first solution frequency  =  5.00000000E+01  Hertz.
  Bus K                        Phasor  node  voltage              Phasor  branch  current               Power flow       Power loss
             Bus M         Rectangular            Polar          Rectangular            Polar            P  and  Q        P  and  Q

 IFUENA                    428660.705       428660.705       .4289016396263  .44581174547132      91926.639608932   .3265530860814
                                  0.0              0.0      .12162029405513       15.8313320      -26066.92049599        1.2190932

            SB1A      428660.78759022   428660.7876276      -.4289016396263  .44581174547132      -91926.31305585
                      -5.661302308978       -0.0007567      -.1216202940551     -164.1686680      26068.139589234

 IFUENB                  -214330.3525       428660.705      -.1091245555377  .44581174547416      91926.639608997  .32655308608245
                      -371231.0601341     -120.0000000      -.4322498626737     -104.1686680        -26066.920498        1.2190932

            SB1B      -214335.2966267   428660.7876276      .10912455553771  .44581174547416      -91926.31305591
                      -371228.3010082     -120.0007567      .43224986267368       75.8313320      26068.139591242

 IFUENC                  -214330.3525       428660.705      -.3197770840851  .44581174547213      91926.639608769  .32655308607886
                      371231.06013415      120.0000000      .31062956861012      135.8313320       -26066.9204972        1.2190932

            SB1C      -214325.4909635   428660.7876276      .31977708408514  .44581174547213      -91926.31305568
                      371233.96231053      119.9992433      -.3106295686101      -44.1686680      26068.139590447

 SB1A                 428660.78759022   428660.7876276      .42866078759E-3  .42866078763E-3      91.875035424758  91.875035424758
                      -5.661302308978       -0.0007567      -.5661302309E-8       -0.0007567      .1168905467E-18        0.0000000

            TERRA                 0.0              0.0      -.4286607876E-3  .42866078763E-3                  0.0
                                  0.0              0.0       .5661302309E-8      179.9992433                  0.0

 SB1B                 -214335.2966267   428660.7876276      -.2143352966E-3  .42866078763E-3      91.875035424758  91.875035424758
                      -371228.3010082     -120.0007567       -.371228301E-3     -120.0007567      -.440619763E-15        0.0000000

            TERRA                 0.0              0.0      .21433529663E-3  .42866078763E-3                  0.0
                                  0.0              0.0      .37122830101E-3       59.9992433                  0.0

 SB1C                 -214325.4909635   428660.7876276       -.214325491E-3  .42866078763E-3      91.875035424758  91.875035424758
                      371233.96231053      119.9992433      .37123396231E-3      119.9992433      -.680011603E-15        0.0000000

            TERRA                 0.0              0.0      .21432549096E-3  .42866078763E-3                  0.0
                                  0.0              0.0      -.3712339623E-3      -60.0007567                  0.0

 RSNSHA               84.793921098119  449.03850158545      .84793921098E-7  .44903850159E-6      .10081778795E-3  .10081778795E-3
                      -440.9598245316      -79.1152304      -.4409598245E-6      -79.1152304      .6203854594E-21        0.0000000

            TERRA                 0.0              0.0       -.847939211E-7  .44903850159E-6                  0.0
                                  0.0              0.0      .44095982453E-6      100.8847696                  0.0

 RSNSHB               -424.2793706417  449.03850158546      -.4242793706E-6  .44903850159E-6      .10081778795E-3  .10081778795E-3
                      147.04622250832      160.8847696      .14704622251E-6      160.8847696      .2603964568E-20        0.0000000

            TERRA                 0.0              0.0      .42427937064E-6  .44903850159E-6                  0.0
                                  0.0              0.0      -.1470462225E-6      -19.1152304                  0.0

 RSNSHC               339.48544954361  449.03850158545      .33948544954E-6  .44903850159E-6      .10081778795E-3  .10081778795E-3
                      293.91360202325       40.8847696      .29391360202E-6       40.8847696       .433442641E-21        0.0000000

            TERRA                 0.0              0.0      -.3394854495E-6  .44903850159E-6                  0.0
                                  0.0              0.0       -.293913602E-6     -139.1152304                  0.0

 RSNNHA               86.200900203855  464.98291598621      .86200900204E-7  .46498291599E-6      .10810455608E-3  .10810455608E-3
                      -456.9228785726      -79.3164151      -.4569228786E-6      -79.3164151      .1598112943E-20        0.0000000

            TERRA                 0.0              0.0       -.862009002E-7  .46498291599E-6                  0.0
                                  0.0              0.0      .45692287857E-6      100.6835849                  0.0

 RSNNHB               -438.8072705161  464.98291598621      -.4388072705E-6  .46498291599E-6      .10810455608E-3  .10810455608E-3
                      153.80926988068      160.6835849      .15380926988E-6      160.6835849      -.357672897E-20        0.0000000

            TERRA                 0.0              0.0      .43880727052E-6  .46498291599E-6                  0.0
                                  0.0              0.0      -.1538092699E-6      -19.3164151                  0.0

 RSNNHC               352.60637031227  464.98291598621      .35260637031E-6  .46498291599E-6      .10810455608E-3  .10810455608E-3
                      303.11360869193       40.6835849      .30311360869E-6       40.6835849      -.648178728E-20        0.0000000

            TERRA                 0.0              0.0      -.3526063703E-6  .46498291599E-6                  0.0
                                  0.0              0.0      -.3031136087E-6     -139.3164151                  0.0

 X0001B               -424.2793707856  449.03850158661      -.1385972211E-4  .42320881721E-4      .22388212871E-6  .22388212871E-6
                      147.04622209667      160.8847696      -.3998706207E-4     -109.1165804      -.0095018526543       -0.0095019

            TERRA                 0.0              0.0      .13859722105E-4  .42320881721E-4                  0.0
                                  0.0              0.0      .39987062068E-4       70.8834196                  0.0

 X0002B               -214335.2966266  428660.78762717      .03498696711206  .04040032742753      .20402330703155  .20402330703155
                      -371228.3010078     -120.0007567      -.0202014501596      -30.0021067      -8659.018085337    -8659.0180853

            TERRA                 0.0              0.0      -.0349869671121  .04040032742753                  0.0
                                  0.0              0.0      .02020145015961      149.9978933                  0.0

 X0001A               84.793921526573  449.03850158661      .42845428538385  .43608309664615      .25954004493397  .95084233591E-7
                      -440.9598244504      -79.1152304      .08121202199618       10.7328882      -97.90870614401              0.0

            LN1A      84.793921098119  449.03850158545      -.4284542853839  .43608309664615      -.2595399498497
                      -440.9598245316      -79.1152304      -.0812120219962     -169.2671118      97.908706144013

 SB1A                 428660.78759022   428660.7876276      .42846659198403  .44539321697059      91833.069123344  .99187559499E-7
                      -5.661302308978       -0.0007567      .12162029960905       15.8466003      -26068.13954814              0.0

            X0002A    428660.78758979  428660.78762717       -.428466591984  .44539321697059      -91833.06912325
                      -5.661302430598       -0.0007567       -.121620299609     -164.1533997       26068.13954814

 X0001B               -424.2793707856  449.03850158661      -.1438955337107  .43608309052907      .25955601905399  .95084230921E-7
                      147.04622209667      160.8847696       -.411658277244     -109.2671211      -97.90870472826              0.0

            LN1B      -424.2793706417  449.03850158546      .14389553371075  .43608309052907      -.2595559239698
                      147.04622250832      160.8847696      .41165827724399       70.7328789      97.908704728261

 SB1B                 -214335.2966267   428660.7876276      -.1089065335691  .44541999515388      91838.165345532  .99199482406E-7
                      -371228.3010082     -120.0007567      -.4319008439779     -104.1524656       -26071.2040409        0.0000000

            X0002B    -214335.2966266  428660.78762717       .1089065335691  .44541999515388      -91838.16534543
                      -371228.3010078     -120.0007567      .43190084397793       75.8475344      26071.204040896

 X0001C               339.48544925905  449.03850158661      -.2845587800948  .43608309357706      .25955033506532  .95084232252E-7
                       293.9136023537       40.8847696      .33044631209123      130.7328822      -97.90870542766        0.0000000

            LN1C      339.48544954361  449.03850158545      .28455878009481  .43608309357706      -.2595502399811
                      293.91360202325       40.8847696      -.3304463120912      -49.2671178      97.908705427663

 SB1C                 -214325.4909635   428660.7876276      -.3195600584149  .44538941176814      91832.013699013  .99185868407E-7
                      371233.96231053      119.9992433      .31024683266878      135.8471956      -26068.87097498              0.0

            X0002C    -214325.4909632  428660.78762717      .31956005841494  .44538941176814      -91832.01369891
                      371233.96231022      119.9992433      -.3102468326688      -44.1528044      26068.870974978

 XX0005               428660.78758979  428660.78762717                  0.0              0.0                  0.0              0.0
                      -5.661302430598       -0.0007567                  0.0              0.0                  0.0              0.0

            X0002A    428660.78758979  428660.78762717                  0.0              0.0                  0.0
                      -5.661302430598       -0.0007567                  0.0              0.0                  0.0

 XX0003               -214335.2966266  428660.78762717                  0.0              0.0                  0.0              0.0
                      -371228.3010078     -120.0007567                  0.0              0.0                  0.0              0.0

            X0002B    -214335.2966266  428660.78762717                  0.0              0.0                  0.0
                      -371228.3010078     -120.0007567                  0.0              0.0                  0.0

 XX0004               -214325.4909632  428660.78762717                  0.0              0.0                  0.0              0.0
                      371233.96231022      119.9992433                  0.0              0.0                  0.0              0.0

            X0002C    -214325.4909632  428660.78762717                  0.0              0.0                  0.0
                      371233.96231022      119.9992433                  0.0              0.0                  0.0

 X0001A               84.793921526573  449.03850158661      .41559672626E-4  .42320881721E-4      .22388212871E-6  .22388212871E-6
                      -440.9598244504      -79.1152304      .79906596014E-5       10.8834196      -.0095018526543       -0.0095019

            TERRA                 0.0              0.0      -.4155967263E-4  .42320881721E-4                  0.0
                                  0.0              0.0      -.7990659601E-5     -169.1165804                  0.0

 X0001A               84.793921526573  449.03850158661      -.4285759936683  .42857621473145      -18.07434500771  91838.785916771
                      -440.9598244504      -79.1152304       -.435298522E-3     -179.9418055      94.510852800156        0.0000000

            X0002A    428660.78758979  428660.78762717      .42857599366826  .42857621473145      91856.860261778
                      -5.661302430598       -0.0007567      .43529852202E-3        0.0581945      -94.51085280016

 X0001B               -424.2793707856  449.03850158661      .21391101725583  .42857621473145      -18.07434500771  91838.785916771
                      147.04622209667      160.8847696      .37137534722988       60.0581945      94.510852800157        0.0000000

            X0002B    -214335.2966266  428660.78762717      -.2139110172558  .42857621473145      91856.860261778
                      -371228.3010078     -120.0007567      -.3713753472299     -119.9418055      -94.51085280016

 X0001C               339.48544925905  449.03850158661      .21466497641243  .42857621473145      -18.07434500771  91838.785916771
                       293.9136023537       40.8847696      -.3709400487079      -59.9418055      94.510852800156        0.0000000

            X0002C    -214325.4909632  428660.78762717      -.2146649764124  .42857621473145      91856.860261778
                      371233.96231022      119.9992433      .37094004870786      120.0581945      -94.51085280016

 X0002C               -214325.4909632  428660.78762717      -.0349884525875  .04040032742753       .2040233070315   .2040233070315
                      371233.96231022      119.9992433      -.0201988772406     -150.0021067      -8659.018085337    -8659.0180853

            TERRA                 0.0              0.0      .03498845258754  .04040032742753                  0.0
                                  0.0              0.0      .02019887724062       29.9978933                  0.0

 X0002A               428660.78758979  428660.78762717       .1485475472E-5  .04040032742753      .20402330703147  .20402330703147
                      -5.661302430598       -0.0007567      .04040032740022       89.9978933      -8659.018085337    -8659.0180853

            TERRA                 0.0              0.0      -.1485475472E-5  .04040032742753                  0.0
                                  0.0              0.0      -.0404003274002      -90.0021067                  0.0

 X0001C               339.48544925905  449.03850158661      -.2769995052E-4  .42320881721E-4      .22388212871E-6  .22388212871E-6
                       293.9136023537       40.8847696      .31996402466E-4      130.8834196      -.0095018526543       -0.0095019

            TERRA                 0.0              0.0      .27699950521E-4  .42320881721E-4                  0.0
                                  0.0              0.0      -.3199640247E-4      -49.1165804                  0.0

 X0001A               84.793921526573  449.03850158661      .80148394308E-4  .08078471323979      17.814795766613  .40788561832724
                      -440.9598244504      -79.1152304      -.0807846734812      -89.9431555      3.4073535209171   -17311.2032994

            X0002A    428660.78758979  428660.78762717      -.8014839431E-4  .08078471323979      -17.40691014829
                      -5.661302430598       -0.0007567      .08078467348124       90.0568445      -17314.61065295

 X0001B               -424.2793707856  449.03850158661      -.0700016536683  .08078471323979      17.814795766613  .40788561832705
                      147.04622209667      160.8847696      .04032292619508      150.0568445       3.407353520917   -17311.2032994

            X0002B    -214335.2966266  428660.78762717      .07000165366834  .08078471323979      -17.40691014829
                      -371228.3010078     -120.0007567      -.0403229261951      -29.9431555      -17314.61065295

 X0001C               339.48544925905  449.03850158661      .06992150527403  .08078471323979      17.814795766613  .40788561832753
                       293.9136023537       40.8847696      .04046174728616       30.0568445       3.407353520917   -17311.2032994

            X0002C    -214325.4909632  428660.78762717       -.069921505274  .08078471323979      -17.40691014829
                      371233.96231022      119.9992433      -.0404617472862     -149.9431555      -17314.61065295

 LN1A                 84.793921098119  449.03850158545      .42845419842181  .43608308806547      .25944526793249  .25933716337627
                      -440.9598245316      -79.1152304      .08121243470947       10.7329436      -97.90870446842      -97.9087045

            VFF2A     86.200900203855  464.98291598621      -.8620089992E-7  .46498291661E-6      -.1081045562E-3
                      -456.9228785726      -79.3164151      .45692287926E-6      100.6835848       -.95318171E-13

 LN1B                 -424.2793706417  449.03850158546      -.1438950676493  .43608308806547      .25944526793232  .25933716337629
                      147.04622250832      160.8847696      -.4116584375461     -109.2670564      -97.90870446842      -97.9087045

            VFF2B     -438.8072705161  464.98291598621       .4388072701E-6  .46498291578E-6       -.108104556E-3
                      153.80926988068      160.6835849      -.1538092704E-6      -19.3164152      -.154967897E-12

 LN1C                 339.48544954361  449.03850158545      -.2845591307725  .43608308806547      .25944526793226  .25933716337627
                      293.91360202325       40.8847696      .33044600283665      130.7329436      -97.90870446842      -97.9087045

            VFF2C     352.60637031227  464.98291598621      -.3526063699E-6  .46498291557E-6       -.108104556E-3
                      303.11360869193       40.6835849      -.3031136085E-6     -139.3164151      .2867194219E-13
     Total network loss  P-loss  by summing injections =   2.757726960960E+05

Output for steady-state phasor switch currents.
      Node-K    Node-M            I-real            I-imag            I-magn          Degrees        Power            Reactive
      LN1A      COMPA         8.56177442E-08   -4.65800781E-07    4.73604017E-07     -79.5849    1.06329647E-04    8.71544585E-07
      LN1B      COMPB        -4.87301588E-07    1.96665488E-07    5.25490392E-07     158.0220    1.17835464E-04    5.89262588E-06
      LN1C      COMPC         3.93527677E-07    2.68314665E-07    4.76294858E-07      34.2869    1.06229125E-04    1.22871062E-05
      VFF2A     RSNNHA        8.62009005E-08   -4.56922879E-07    4.64982917E-07     -79.3164    1.08104556E-04   -3.08897454E-14
      VFF2B     RSNNHB       -4.38807270E-07    1.53809270E-07    4.64982916E-07     160.6836    1.08104556E-04    1.12835003E-13
      VFF2C     RSNNHC        3.52606370E-07    3.03113609E-07    4.64982916E-07      40.6836    1.08104556E-04   -7.93054859E-14
      VFF2A     SE2A              Open              Open              Open             Open          Open              Open
      VFF2B     SE2B              Open              Open              Open             Open          Open              Open
      VFF2C     SE2C              Open              Open              Open             Open          Open              Open
      X0001B    XX0003            Open              Open              Open             Open          Open              Open
      X0001C    XX0004            Open              Open              Open             Open          Open              Open
      XX0005    X0002A            Open              Open              Open             Open          Open              Open
      XX0003    X0002B            Open              Open              Open             Open          Open              Open
      XX0004    X0002C            Open              Open              Open             Open          Open              Open
      X0001A    XX0005            Open              Open              Open             Open          Open              Open
      VFUENA    IFUENA        4.28901640E-01    1.21620294E-01    4.45811745E-01      15.8313    9.19266396E+04   -2.60669205E+04
      VFUENB    IFUENB       -1.09124556E-01   -4.32249863E-01    4.45811745E-01    -104.1687    9.19266396E+04   -2.60669205E+04
      VFUENC    IFUENC       -3.19777084E-01    3.10629569E-01    4.45811745E-01     135.8313    9.19266396E+04   -2.60669205E+04
      COMPA     RSNSHA        8.56177442E-08   -4.65800781E-07    4.73604017E-07     -79.5849    1.06329647E-04    8.71544585E-07
      COMPB     RSNSHB       -4.87301588E-07    1.96665488E-07    5.25490392E-07     158.0220    1.17835464E-04    5.89262588E-06
      COMPC     RSNSHC        3.93527677E-07    2.68314665E-07    4.76294858E-07      34.2869    1.06229125E-04    1.22871062E-05

Solution at nodes with known voltage.   Nodes that are shorted together by switches are shown as a group of names, with the printed
result applying to the composite group.   The entry "MVA" is  SQRT( P**2 + Q**2 )  in units of power,  while  "P.F."  is the
associated power factor.
              Node                Source  node  voltage             Injected  source  current              Injected  source  power
              name         Rectangular            Polar          Rectangular            Polar            P  and  Q    MVA and P.F.

               VFUENA
              IFUENA       428660.705       428660.705      .42890163962455  .44581174546962      91926.639608558  95550.988555143
                                  0.0              0.0      .12162029405505       15.8313320      -26066.92049597        0.9620690

               VFUENB
              IFUENB     -214330.3525       428660.705      -.1091245555375  .44581174547407      91926.639608969  95550.988556098
                      -371231.0601341     -120.0000000      -.4322498626736     -104.1686680      -26066.92049802        0.9620690

               VFUENC
              IFUENC     -214330.3525       428660.705      -.3197770840865  .44581174547304      91926.639608898  95550.988555877
                      371231.06013415      120.0000000      .31062956861003      135.8313320      -26066.92049746        0.9620690

  +++  Node  "COMPC "  has no connected linear branches.  Add (to ground) the conductance  G = 1.00000000E-18  mhos.
  +++  Node  "COMPB "  has no connected linear branches.  Add (to ground) the conductance  G = 1.00000000E-18  mhos.
  +++  Node  "COMPA "  has no connected linear branches.  Add (to ground) the conductance  G = 1.00000000E-18  mhos.
Card of names for time-step loop output.          |  LN1A  LN1B  LN1C  COMPA COMPB COMPC SB1A  SB1B  SB1C  SE2A  SE2B  SE2C  VFF2A
Card of names for time-step loop output.          |  VFF2B VFF2C IFUENAIFUENBIFUENC
Card of names for time-step loop output.          |-5VFF2A VFF2B VFF2B VFF2C VFF2C VFF2A LN1A  LN1B  LN1B  LN1C  LN1C  LN1A
Card of names for time-step loop output.          |-5SB1A  SB1B  SB1B  SB1C  SB1C  SB1A
Blank card ending requests for output variables.  |BLANK OUTPUT

Column headings for the  55   EMTP output variables follow.  These are divided among the 5 possible classes as follows ....
  First  27     output variables are electric-network voltage differences (upper voltage minus lower voltage);
  Next   6     output variables are branch currents (flowing from the upper node to the lower node);
  Next   22     output variables belong to MODELS (with "MODELS" an internally-added upper name of pair).
   Step      Time      LN1A       LN1B       LN1C       COMPA      COMPB      COMPC      SB1A       SB1B       SB1C       SE2A
 

                       SE2B       SE2C       VFF2A      VFF2B      VFF2C      IFUENA     IFUENB     IFUENC     VFF2A      VFF2B
                                                                                                               VFF2B      VFF2C

                       VFF2C      LN1A       LN1B       LN1C       SB1A       SB1B       SB1C       VFUENA     VFUENB     VFUENC
                       VFF2A      LN1B       LN1C       LN1A       SB1B       SB1C       SB1A       IFUENA     IFUENB     IFUENC

                       COMPA      COMPB      COMPC      MODELS     MODELS     MODELS     MODELS     MODELS     MODELS     MODELS
                       RSNSHA     RSNSHB     RSNSHC     ANVOL      LONG       R0F        R1F        X0F        X1F        RDIVX

                       MODELS     MODELS     MODELS     MODELS     MODELS     MODELS     MODELS     MODELS     MODELS     MODELS
                       RINSER     CLOSE1     RPPOS      RPCERO     LPPOS      LPCERO     CPPOS      CPCERO     XP         CR

                       MODELS     MODELS     MODELS     MODELS     MODELS
                       SIMET      ENC1       ENC2       ENC1AS     ENC2AS
 ***      Phasor I(0) =  8.5617744E-08                     Switch  "LN1A  "  to  "COMPA "  closed in the steady-state.
 ***      Phasor I(0) = -4.8730159E-07                     Switch  "LN1B  "  to  "COMPB "  closed in the steady-state.
 ***      Phasor I(0) =  3.9352768E-07                     Switch  "LN1C  "  to  "COMPC "  closed in the steady-state.
 ***      Phasor I(0) =  8.6200900E-08                     Switch  "VFF2A "  to  "RSNNHA"  closed in the steady-state.
 ***      Phasor I(0) = -4.3880727E-07                     Switch  "VFF2B "  to  "RSNNHB"  closed in the steady-state.
 ***      Phasor I(0) =  3.5260637E-07                     Switch  "VFF2C "  to  "RSNNHC"  closed in the steady-state.
 ***      Phasor I(0) =  4.2890164E-01                     Switch  "VFUENA"  to  "IFUENA"  closed in the steady-state.
 ***      Phasor I(0) = -1.0912456E-01                     Switch  "VFUENB"  to  "IFUENB"  closed in the steady-state.
 ***      Phasor I(0) = -3.1977708E-01                     Switch  "VFUENC"  to  "IFUENC"  closed in the steady-state.
 ***      Phasor I(0) =  8.5617744E-08                     Switch  "COMPA "  to  "RSNSHA"  closed in the steady-state.
 ***      Phasor I(0) = -4.8730159E-07                     Switch  "COMPB "  to  "RSNSHB"  closed in the steady-state.
 ***      Phasor I(0) =  3.9352768E-07                     Switch  "COMPC "  to  "RSNSHC"  closed in the steady-state.
      0       0.0  84.7939211 -424.27937  339.48545 84.7939211 -424.27937  339.48545 428660.788  -214335.3 -214325.49        0.0
                          0.0        0.0 86.2009002 -438.80727  352.60637 428660.705 -214330.35 -214330.35 525.008171 -791.41364
                    266.40547 509.073292 -763.76482 254.691528 642996.084 -9.8056632 -642986.28  .42890164 -.10912456 -.31977708
                   .856177E-7  -.4873E-6 .393528E-6        0.0   344.3371   4.166237   3.286123   15.55335   12.26772    .267867
                         420.    .046454    .020997    .302069    .211173   1.471675    .008772      .0093   1621.309   32.42619
                          1.0        0.0        0.0        0.0        0.0
    500     .5E-3  152.731206 -442.05885 289.327643 152.731206 -442.05885 289.327643  423384.15 -153623.57 -269760.58        0.0
                          0.0        0.0  156.61811 -457.46589 300.847785  423383.18 -153618.26 -269764.92 614.084005 -758.31368
                   144.229675 594.790055 -731.38649 136.596437 577007.724 116137.002 -693144.73 .404592257 -.04016102 -.36443123
                   .168605E-6 -.44336E-6 .274769E-6        0.0   344.3371   4.166237   3.286123   15.55335   12.26772    .267867
                         420.    .046454    .020997    .302069    .211173   1.471675    .008772      .0093   1621.309   32.42619
                          1.0        0.0        0.0        0.0        0.0
   1000     .1E-2  216.907893 -448.95344 232.045551 216.907893 -448.95344 232.045551 407682.384 -89129.126 -318553.26        0.0
                          0.0        0.0 223.178419 -464.85997 241.681555 407680.557 -89123.572 -318556.98 688.038393 -706.54153
                   18.5031361 665.861337   -680.999 15.1376585  496811.51 229424.131 -726235.64 .370324228 .029789526 -.40011375
                    .23352E-6 -.48228E-6 .248721E-6        0.0   344.3371   4.166237   3.286123   15.55335   12.26772    .267867
                         420.    .046454    .020997    .302069    .211173   1.471675    .008772      .0093   1621.309   32.42619
                          1.0        0.0        0.0        0.0        0.0
   1500     .0015  275.743512 -444.79328 169.049766 275.743512 -444.79328 169.049766 381942.129 -22440.026  -359502.1        0.0
                          0.0        0.0 284.244228  -460.8081 176.563873 381939.485 -22434.368 -359505.12 745.052329 -637.37197
                   -107.68035  720.53679 -613.84304 -106.69375 404382.155 337062.077 -741444.23  .32693713 .099006788 -.42594392
                   .315311E-6 -.44634E-6  .18788E-6        0.0   344.3371   4.166237   3.286123   15.55335   12.26772    .267867
                         420.    .046454    .020997    .302069    .211173   1.471675    .008772      .0093   1621.309   32.42619
                          1.0        0.0        0.0        0.0        0.0
   2000      .002   327.78943 -429.68084 101.891411  327.78943 -429.68084 101.891411 346797.196 44801.6198 -391598.82        0.0
                          0.0        0.0 338.310538 -445.40937 107.098832 346793.795 44807.2448 -391601.04 783.719909  -552.5082
                   -231.21171 757.470271 -531.57225 -225.89802 301995.576 436400.436 -738396.01 .275499669 .165786218 -.44128589
                   .324716E-6 -.45688E-6 .103755E-6        0.0   344.3371   4.166237   3.286123   15.55335   12.26772    .267867
                         420.    .046454    .020997    .302069    .211173   1.471675    .008772      .0093   1621.309   32.42619
                          1.0        0.0        0.0        0.0        0.0
   2500     .0025   371.76403  -403.9882 32.2241721  371.76403  -403.9882 32.2241721  303112.95 110940.109 -414053.06        0.0
                          0.0        0.0 384.046505 -419.04318 34.9966709 303108.891 110945.554 -414054.45 803.089681 -454.03985
                   -349.04983 775.752231 -436.21237 -339.53986 192172.841 524993.168 -717166.01 .217278396 .228483485 -.44576188
                   .380072E-6 -.43407E-6 .327236E-7        0.0   344.3371   4.166237   3.286123   15.55335   12.26772    .267867
                         420.    .046454    .020997    .302069    .211173   1.471675    .008772      .0093   1621.309   32.42619
                          1.0        0.0        0.0        0.0        0.0
   3000      .003  406.584628 -368.34806 -38.236564 406.584628 -368.34806 -38.236564  251965.07 174346.878 -426311.95        0.0
                          0.0        0.0 420.325931 -382.35873 -37.967199 251960.441 174352.016 -426312.46 802.684663 -344.39153
                   -458.29313 774.932691  -330.1115 -444.82119 77618.1918 600658.825 -678277.02 .153707619 .285554428 -.43926205
                    .44141E-6 -.39531E-6 -.39006E-7        0.0   344.3371   4.166237   3.286123   15.55335   12.26772    .267867
                         420.    .046454    .020997    .302069    .211173   1.471675    .008772      .0093   1621.309   32.42619
                          1.0        0.0        0.0        0.0        0.0
   3500     .0035  431.393833 -323.63801 -107.75582 431.393833 -323.63801 -107.75582 194612.966 233460.651 -428073.62        0.0
                          0.0        0.0 446.255751 -336.25945  -109.9963 194607.888 233465.353 -428073.24 782.515199 -226.26315
                   -556.25205 755.031846 -215.88219 -539.14965 -38847.685 661534.269 -622686.58 .086351057 .335594569 -.42194563
                   .438994E-6 -.33611E-6 -.11707E-6        0.0   344.3371   4.166237   3.286123   15.55335   12.26772    .267867
                         420.    .046454    .020997    .302069    .211173   1.471675    .008772      .0093   1621.309   32.42619
                          1.0        0.0        0.0        0.0        0.0
   4000      .004   445.58061 -270.95888 -174.62173  445.58061 -270.95888 -174.62173 132468.852 286825.846  -419294.7        0.0
                          0.0        0.0 461.197006 -281.88021  -179.3168 132463.443 286829.997 -419293.44 743.077214 -102.56341
                   -640.51381 716.539488 -96.337144 -620.20234 -154356.99 706120.544 -551763.55 .016869215 .377370774 -.39423999
                   .441991E-6 -.28826E-6 -.18215E-6        0.0   344.3371   4.166237   3.286123   15.55335   12.26772    .267867
                         420.    .046454    .020997    .302069    .211173   1.471675    .008772      .0093   1621.309   32.42619
                          1.0        0.0        0.0        0.0        0.0
   4500     .0045  448.795558 -211.60776  -237.1878 448.795558 -211.60776  -237.1878 67062.9121 333128.437 -400191.35        0.0
                          0.0        0.0 464.782384 -220.56031 -244.22208 67057.3081 333131.936 -400189.24 685.342692 23.6617686
                   -709.00446 660.403313 25.5800475 -685.98336 -266065.53 733319.787 -467254.26 -.05302821 .409854963 -.35682675
                   .458957E-6 -.21874E-6 -.24022E-6        0.0   344.3371   4.166237   3.286123   15.55335   12.26772    .267867
                         420.    .046454    .020997    .302069    .211173   1.471675    .008772      .0093   1621.309   32.42619
                          1.0        0.0        0.0        0.0        0.0
   5000      .005  440.959834 -147.04623  -293.9136 440.959834 -147.04623  -293.9136 5.66188306 371228.301 -371233.96        0.0
                          0.0        0.0 456.922834 -153.80925 -303.11358 -.45661E-7  371231.06 -371231.06 610.732089 149.304325
                   -760.03641 588.006065 146.867372 -734.87344 -371222.64 742462.263 -371239.62 -.12162034 .432247378 -.31062704
                   .448495E-6 -.14915E-6 -.32774E-6        0.0   344.3371   4.166237   3.286123   15.55335   12.26772    .267867
                         420.    .046454    .020997    .302069    .211173   1.471675    .008772      .0093   1621.309   32.42619
                          1.0        0.0        0.0        0.0        0.0
   5500     .0055  422.266048 -78.863861 -343.40219 422.266048 -78.863861 -343.40219  -67051.73 400187.292 -333135.56        0.0
                          0.0        0.0 437.812607 -83.271046 -354.54156 -67057.308 400189.244 -333131.94 521.083653 271.270515
                   -792.35417 501.129908 264.538326 -765.66823 -467239.02 733322.855 -266083.83  -.1872174 .443996243 -.25677884
                   .444381E-6 -.87463E-7  -.3711E-6        0.0   344.3371   4.166237   3.286123   15.55335   12.26772    .267867
                         420.    .046454    .020997    .302069    .211173   1.471675    .008772      .0093   1621.309   32.42619
                          1.0        0.0        0.0        0.0        0.0
   6000      .006  393.174961 -8.7397409 -384.43522 393.174961 -8.7397409 -384.43522 -132458.08 419292.343 -286834.26        0.0
                          0.0        0.0 407.921914   -10.6824 -397.23951 -132463.44  419293.44   -286830. 418.604314 386.557114
                   -805.16143 401.914702 375.695479 -777.61018 -551750.43 706126.604 -154376.18 -.24820486 .444812598 -.19660774
                   .420421E-6 -.94032E-8 -.39328E-6        0.0   344.3371   4.166237   3.286123   15.55335   12.26772    .267867
                         420.    .046454    .020997    .302069    .211173   1.471675    .008772      .0093   1621.309   32.42619
                          1.0        0.0        0.0        0.0        0.0
   6500     .0065  354.402456 61.5996525 -416.00211 354.402456 61.5996525 -416.00211 -194602.88 428073.027 -233470.15        0.0
                          0.0        0.0 367.986916 62.1692438 -430.15616 -194607.89  428073.24 -233465.35 305.817672 492.325403
                   -798.14308 292.802803 477.601761 -770.40456 -622675.91 661543.172 -38867.265 -.30308044  .43467607 -.13159563
                   .390844E-6 .672004E-7 -.45807E-6        0.0   344.3371   4.166237   3.286123   15.55335   12.26772    .267867
                         420.    .046454    .020997    .302069    .211173   1.471675    .008772      .0093   1621.309   32.42619
                          1.0        0.0        0.0        0.0        0.0
   7000      .007  306.903486 130.422203 -437.32569 306.903486 130.422203 -437.32569 -251955.91 426313.131 -174357.22        0.0
                          0.0        0.0 318.990763 133.490123 -452.48089 -251960.44 426312.457 -174352.02  185.50064 585.971008
                   -771.47165 176.481283 567.747893 -744.22918 -678269.04 600670.352 77598.6875 -.35049326 .413836419 -.06334316
                    .29845E-6  .13892E-6 -.46578E-6        0.0   344.3371   4.166237   3.286123   15.55335   12.26772    .267867
                         420.    .046454    .020997    .302069    .211173   1.471675    .008772      .0093   1621.309   32.42619
                          1.0        0.0        0.0        0.0        0.0
   7500     .0075  251.847327 196.033436 -447.88076 251.847327 196.033436 -447.88076 -303104.95 414055.991 -110951.04        0.0
                          0.0        0.0 262.140052 201.524005 -463.66406 -303108.89 414054.446 -110945.55 60.6160469 665.188062
                   -725.80411 55.8138915 643.914198 -699.72809 -717160.94 525007.035 192153.904 -.38927576  .38280673 .006469028
                   .250864E-6 .202933E-6 -.45379E-6        0.0   344.3371   4.166237   3.286123   15.55335   12.26772    .267867
                         420.    .046454    .020997    .302069    .211173   1.471675    .008772      .0093   1621.309   32.42619
                          1.0        0.0        0.0        0.0        0.0
   8000      .008  190.589997 256.817601  -447.4076 190.589997 256.817601  -447.4076 -346790.53 391603.418 -44812.884        0.0
                          0.0        0.0 198.834576 264.595696 -463.43027  -346793.8  391601.04 -44807.245 -65.761121 728.025969
                   -662.26485 -66.227605   704.2252 -637.99759 -738393.95 436416.302 301977.651 -.41847305 .342351099 .076121952
                   .195718E-6 .257772E-6 -.48187E-6        0.0   344.3371   4.166237   3.286123   15.55335   12.26772    .267867
                         420.    .046454    .020997    .302069    .211173   1.471675    .008772      .0093   1621.309   32.42619
                          1.0        0.0        0.0        0.0        0.0
   8500     .0085   124.63973 311.278049 -435.91778  124.63973 311.278049 -435.91778 -381936.99 359508.269  22428.718        0.0
                          0.0        0.0 130.633154 321.152158 -451.78531 -381939.48 359505.117 22434.3679   -190.519  772.93747
                   -582.41847 -186.63832 747.195829 -560.55751 -741445.26 337079.551 404365.705 -.43736593 .293465537 .143900389
                   .123679E-6 .332368E-6 -.45606E-6        0.0   344.3371   4.166237   3.286123   15.55335   12.26772    .267867
                         420.    .046454    .020997    .302069    .211173   1.471675    .008772      .0093   1621.309   32.42619
                          1.0        0.0        0.0        0.0        0.0
   9000      .009   55.620343 358.073842 -413.69418  55.620343 358.073842 -413.69418 -407678.89 318560.834 89118.0513        0.0
                          0.0        0.0 59.2150312 369.800827 -429.01586 -407680.56 318556.985  89123.572  -310.5858 798.816684
                   -488.23089  -302.4535 771.768027 -469.31453 -726239.72 229442.783 496796.937 -.44548957 .237353963 .208135606
                   .571782E-7 .371742E-6  -.4076E-6        0.0   344.3371   4.166237   3.286123   15.55335   12.26772    .267867
                         420.    .046454    .020997    .302069    .211173   1.471675    .008772      .0093   1621.309   32.42619
                          1.0        0.0        0.0        0.0        0.0
   9500     .0095  -14.768663 396.052699 -381.28404 -14.768663 396.052699 -381.28404 -423382.38 269769.374 153613.002        0.0
                          0.0        0.0 -13.661287 409.343829 -395.68254 -423383.18 269764.922 153618.258 -423.00512 805.026372
                   -382.02126 -410.82136 777.336735 -366.51537 -693151.75 116156.372 576995.379 -.44264379 .175397954 .267245841
                   -.15471E-7 .395064E-6 -.39206E-6        0.0   344.3371   4.166237   3.286123   15.55335   12.26772    .267867
                         420.    .046454    .020997    .302069    .211173   1.471675    .008772      .0093   1621.309   32.42619
                          1.0        0.0        0.0        0.0        0.0
  10000       .01  -84.793916 424.279374 -339.48546 -84.793916 424.279374 -339.48546 -428660.79 214335.297 214325.491        0.0
                          0.0        0.0 -86.200957 438.807302 -352.60635 -428660.71 214330.353 214330.352 -525.00826 791.413648
                   -266.40539 -509.07329 763.764832 -254.69154 -642996.08 9.80560231 642986.278 -.42889876 .109123115 .319775645
                   -.91622E-7 .465638E-6 -.35981E-6        0.0   344.3371   4.166237   3.286123   15.55335   12.26772    .267867
                         420.    .046454    .020997    .302069    .211173   1.471675    .008772      .0093   1621.309   32.42619
                          1.0        0.0        0.0        0.0        0.0
  10500     .0105  -152.73131 442.058902 -289.32759 -152.73131 442.058902 -289.32759 -423384.15 153623.573 269760.575        0.0
                          0.0        0.0  -156.6181   457.4659 -300.84779 -423383.18 153618.258 269764.922   -614.084 758.313695
                   -144.22969 -594.79021 731.386496 -136.59629 -577007.72   -116137. 693144.722 -.40459287 .040161328 .364431538
                   -.16903E-6 .471421E-6 -.30239E-6        0.0   344.3371   4.166237   3.286123   15.55335   12.26772    .267867
                         420.    .046454    .020997    .302069    .211173   1.471675    .008772      .0093   1621.309   32.42619
                          1.0        0.0        0.0        0.0        0.0
  11000      .011  -216.90784 448.953423 -232.04558 -216.90784 448.953423 -232.04558 -407682.38 89129.1265 318553.258        0.0
                          0.0        0.0 -223.17859 464.860061 -241.68147 -407680.56  89123.572 318556.985 -688.03865 706.541531
                    -18.50288 -665.86126 680.999006 -15.137744 -496811.51 -229424.13 726235.642 -.37032427 -.02978951 .400113775
                   -.23106E-6  .46689E-6 -.23586E-6        0.0   344.3371   4.166237   3.286123   15.55335   12.26772    .267867
                         420.    .046454    .020997    .302069    .211173   1.471675    .008772      .0093   1621.309   32.42619
                          1.0        0.0        0.0        0.0        0.0
  11500     .0115  -275.74348 444.793273 -169.04979 -275.74348 444.793273 -169.04979 -381942.13 22440.0257 359502.103        0.0
                          0.0        0.0 -284.24413 460.808053 -176.56393 -381939.48 22434.3679 359505.117 -745.05218  637.37198
                     107.6802 -720.53676 613.843061 106.693697 -404382.15 -337062.08 741444.231 -.32693711  -.0990068  .42594391
                   -.26663E-6  .45039E-6 -.18381E-6        0.0   344.3371   4.166237   3.286123   15.55335   12.26772    .267867
                         420.    .046454    .020997    .302069    .211173   1.471675    .008772      .0093   1621.309   32.42619
                          1.0        0.0        0.0        0.0        0.0
  12000      .012  -327.78945 429.680854  -101.8914 -327.78945 429.680854  -101.8914 -346797.19 -44801.623 391598.813        0.0
                          0.0        0.0 -338.31051 445.409363 -107.09885  -346793.8 -44807.245  391601.04 -783.71987 552.508216
                   231.211658 -757.47031 531.572253 225.898055 -301995.57 -436400.44 738396.004 -.27549965 -.16578622 .441285877
                   -.32831E-6  .45782E-6 -.10108E-6        0.0   344.3371   4.166237   3.286123   15.55335   12.26772    .267867
                         420.    .046454    .020997    .302069    .211173   1.471675    .008772      .0093   1621.309   32.42619
                          1.0        0.0        0.0        0.0        0.0
  12500     .0125  -371.76402 403.988202 -32.224179 -371.76402 403.988202 -32.224179 -303112.95 -110940.11 414053.061        0.0
                          0.0        0.0 -384.04649 419.043176 -34.996689 -303108.89 -110945.55 414054.446 -803.08966 454.039865
                   349.049799 -775.75223 436.212381 339.539844 -192172.85 -524993.17 717166.014 -.21727867 -.22848335  .44576202
                   -.36642E-6 .399421E-6  -.3296E-7        0.0   344.3371   4.166237   3.286123   15.55335   12.26772    .267867
                         420.    .046454    .020997    .302069    .211173   1.471675    .008772      .0093   1621.309   32.42619
                          1.0        0.0        0.0        0.0        0.0
  13000      .013  -406.58458 368.348046 38.2365328 -406.58458 368.348046 38.2365328 -251965.07 -174346.88 426311.947        0.0
                          0.0        0.0 -420.32597 382.358752 37.9672145 -251960.44 -174352.02 426312.457 -802.68472 344.391537
                   458.293181 -774.93263 330.111514 444.821112 -77618.191 -600658.83 678277.016 -.15370748  -.2855545 .439261976
                   -.42622E-6 .387699E-6 .385407E-7        0.0   344.3371   4.166237   3.286123   15.55335   12.26772    .267867
                         420.    .046454    .020997    .302069    .211173   1.471675    .008772      .0093   1621.309   32.42619
                          1.0        0.0        0.0        0.0        0.0
  13500     .0135  -431.39372 323.637956 107.755762 -431.39372 323.637956 107.755762 -194612.97 -233460.65 428073.619        0.0
                          0.0        0.0 -446.25563 336.259391 109.996235 -194607.89 -233465.35  428073.24 -782.51502 226.263156
                   556.251861 -755.03167 215.882195  539.14948 38847.6798 -661534.27 622686.589 -.08635144 -.33559438 .421945817
                   -.45979E-6 .318732E-6 .112661E-6        0.0   344.3371   4.166237   3.286123   15.55335   12.26772    .267867
                         420.    .046454    .020997    .302069    .211173   1.471675    .008772      .0093   1621.309   32.42619
                          1.0        0.0        0.0        0.0        0.0
  14000      .014  -445.58052 270.958833 174.621683 -445.58052 270.958833 174.621683 -132468.85 -286825.85 419294.698        0.0
                          0.0        0.0 -461.19703 281.880226 179.316801 -132463.44   -286830.  419293.44 -743.07725 102.563425
                   640.513828 -716.53935   96.33715   620.2022 154356.994 -706120.54  551763.55 -.01686916  -.3773708  .39423996
                   -.47914E-6 .306824E-6 .172338E-6        0.0   344.3371   4.166237   3.286123   15.55335   12.26772    .267867
                         420.    .046454    .020997    .302069    .211173   1.471675    .008772      .0093   1621.309   32.42619
                          1.0        0.0        0.0        0.0        0.0
  14500     .0145  -448.79559  211.60778 237.187815 -448.79559  211.60778 237.187815 -67062.913 -333128.44  400191.35        0.0
                          0.0        0.0 -464.78219 220.560213 244.221979 -67057.308 -333131.94 400189.244 -685.34241 -23.661766
                   709.004171 -660.40337 -25.580035 685.983409 266065.525 -733319.79 467254.262 .053028401 -.40985506 .356826656
                   -.47068E-6 .224694E-6 .245956E-6        0.0   344.3371   4.166237   3.286123   15.55335   12.26772    .267867
                         420.    .046454    .020997    .302069    .211173   1.471675    .008772      .0093   1621.309   32.42619
                          1.0        0.0        0.0        0.0        0.0
  % % % % % %   Suspended simulation;  plot data space exhausted;  SPY SPACE is required.   LIMBUF =  840000.
  % % % % % %   Suspended simulation;  plot data space exhausted;  SPY SPACE is required.   LIMBUF =  840000.
  +++  Time-sharing disabled.   Send  user-keyed interrupt to silence alarm.
   Current values.  INDBUF  INDBEG  LIMBUF  MFLUSH  NUMDCD  KCARD1  KCARD2
                    839994      50  840000    1000     230       1     231
Plot timespan now in memory (in sec) = 0.00000000E+00   1.49990000E-02
   ++++  Begin plot-data copy from memory to disk.   MFLUSH, INDBUF, N4, Tbeg,  Tend = 1001  839994       1  -1.00000E+00
1.00000E+19
  15000      .015  -440.95983 147.046236 293.913591 -440.95983 147.046236 293.913591 -5.6612125  -371228.3 371233.962        0.0
                          0.0        0.0  -456.9229 153.809289 303.113607 -.61533E-6 -371231.06  371231.06 -610.73218 -149.30432
                   760.036503 -588.00606 -146.86735 734.873418  371222.64 -742462.26 371239.623 .121620262 -.43224734 .310627076
                   -.45277E-6 .151189E-6 .301574E-6        0.0   344.3371   4.166237   3.286123   15.55335   12.26772    .267867
                         420.    .046454    .020997    .302069    .211173   1.471675    .008772      .0093   1621.309   32.42619
                          1.0        0.0        0.0        0.0        0.0
  15500     .0155  -422.26605 78.8638618 343.402184 -422.26605 78.8638618 343.402184 67051.7296 -400187.29 333135.563        0.0
                          0.0        0.0 -437.81258 83.2710391  354.54154 67057.3081 -400189.24 333131.936 -521.08362  -271.2705
                   792.354119 -501.12991 -264.53832 765.668229 467239.022 -733322.85 266083.833 .187217478 -.44399628 .256778801
                   -.44303E-6 .868615E-7 .341941E-6        0.0   344.3371   4.166237   3.286123   15.55335   12.26772    .267867
                         420.    .046454    .020997    .302069    .211173   1.471675    .008772      .0093   1621.309   32.42619
                          1.0        0.0        0.0        0.0        0.0
  16000      .016  -393.17494 8.73973801 384.435206 -393.17494 8.73973801 384.435206 132458.084 -419292.34  286834.26        0.0
                          0.0        0.0 -407.92223 10.6825574 397.239671 132463.443 -419293.44 286829.997 -418.60479 -386.55711
                   805.161899 -401.91468 -375.69547 777.610151 551750.428  -706126.6 154376.176 .248204771 -.44481256 .196607784
                   -.42005E-6 .901961E-8 .421656E-6        0.0   344.3371   4.166237   3.286123   15.55335   12.26772    .267867
                         420.    .046454    .020997    .302069    .211173   1.471675    .008772      .0093   1621.309   32.42619
                          1.0        0.0        0.0        0.0        0.0
  16500     .0165  -354.40244 -61.599652 416.002093 -354.40244 -61.599652 416.002093 194602.881 -428073.03 233470.146        0.0
                          0.0        0.0 -367.98689 -62.169254 430.156143 194607.888 -428073.24 233465.353 -305.81764  -492.3254
                   798.143033 -292.80279 -477.60175 770.404534 622675.907 -661543.17  38867.265 .303080451 -.43467608 .131595625
                   -.39657E-6 -.64282E-7 .460859E-6        0.0   344.3371   4.166237   3.286123   15.55335   12.26772    .267867
                         420.    .046454    .020997    .302069    .211173   1.471675    .008772      .0093   1621.309   32.42619
                          1.0        0.0        0.0        0.0        0.0
  17000      .017  -306.90342 -130.42224 437.325655 -306.90342 -130.42224 437.325655 251955.909 -426313.13 174357.221        0.0
                          0.0        0.0 -318.99076 -133.49012  452.48088 251960.441 -426312.46 174352.016 -185.50065   -585.971
                   771.471645 -176.48118 -567.74789 744.229074  678269.04 -600670.35 -77598.688  .35049312 -.41383635 .063343227
                   -.30345E-6 -.13643E-6 .468281E-6        0.0   344.3371   4.166237   3.286123   15.55335   12.26772    .267867
                         420.    .046454    .020997    .302069    .211173   1.471675    .008772      .0093   1621.309   32.42619
                          1.0        0.0        0.0        0.0        0.0
  17500     .0175  -251.84734 -196.03343 447.880764 -251.84734 -196.03343 447.880764 303104.947 -414055.99 110951.044        0.0
                          0.0        0.0 -262.14002 -201.52401 463.664033 303108.891 -414054.45 110945.554  -60.61601 -665.18804
                   725.804055  -55.81391 -643.91419   699.7281 717160.938 -525007.03  -192153.9 .389275733 -.38280672 -.00646902
                   -.26305E-6 -.21091E-6 .445551E-6        0.0   344.3371   4.166237   3.286123   15.55335   12.26772    .267867
                         420.    .046454    .020997    .302069    .211173   1.471675    .008772      .0093   1621.309   32.42619
                          1.0        0.0        0.0        0.0        0.0
  18000      .018  -190.58995 -256.81762 447.407567 -190.58995 -256.81762 447.407567 346790.535 -391603.42 44812.8835        0.0
                          0.0        0.0  -198.8345 -264.59573 463.430232 346793.795 -391601.04 44807.2448 65.7612324 -728.02596
                   662.264732 66.2276707 -704.22519 637.997515 738393.953  -436416.3 -301977.65 .418473002 -.34235107 -.07612193
                   -.19235E-6 -.27364E-6 .466011E-6        0.0   344.3371   4.166237   3.286123   15.55335   12.26772    .267867
                         420.    .046454    .020997    .302069    .211173   1.471675    .008772      .0093   1621.309   32.42619
                          1.0        0.0        0.0        0.0        0.0
  18500     .0185  -124.63971 -311.27806 435.917769 -124.63971 -311.27806 435.917769 381936.988 -359508.27 -22428.719        0.0
                          0.0        0.0 -130.63311 -321.15218 451.785283 381939.485 -359505.12 -22434.368 190.519069 -772.93746
                    582.41839 186.638347 -747.19583  560.55748 741445.258 -337079.55 -404365.71 .437366038 -.29346559 -.14390045
                   -.12393E-6 -.33265E-6 .456581E-6        0.0   344.3371   4.166237   3.286123   15.55335   12.26772    .267867
                         420.    .046454    .020997    .302069    .211173   1.471675    .008772      .0093   1621.309   32.42619
                          1.0        0.0        0.0        0.0        0.0
  19000      .019  -55.620291 -358.07386 413.694156 -55.620291 -358.07386 413.694156 407678.885 -318560.83 -89118.051        0.0
                          0.0        0.0 -59.215027 -369.80082 429.015848 407680.557 -318556.98 -89123.572 310.585794 -798.81667
                   488.230875 302.453574 -771.76802 469.314446 726239.719 -229442.78 -496796.94 .445489646   -.237354 -.20813564
                   -.59597E-7 -.40247E-6 .433676E-6        0.0   344.3371   4.166237   3.286123   15.55335   12.26772    .267867
                         420.    .046454    .020997    .302069    .211173   1.471675    .008772      .0093   1621.309   32.42619
                          1.0        0.0        0.0        0.0        0.0
  19500     .0195    14.76865 -396.05269 381.284036   14.76865 -396.05269 381.284036 423382.376 -269769.37   -153613.        0.0
                          0.0        0.0  13.661188 -409.34378 395.682591  423383.18 -269764.92 -153618.26 423.004967 -805.02637
                   382.021403 410.821336 -777.33672 366.515386  693151.75 -116156.37 -576995.38 .442643852 -.17539798 -.26724587
                   .158472E-7 -.43255E-6 .411412E-6        0.0   344.3371   4.166237   3.286123   15.55335   12.26772    .267867
                         420.    .046454    .020997    .302069    .211173   1.471675    .008772      .0093   1621.309   32.42619
                          1.0        0.0        0.0        0.0        0.0
  20000       .02  84.7939333 -424.27937 339.485441 84.7939333 -424.27937 339.485441 428660.788  -214335.3 -214325.49        0.0
                          0.0        0.0  86.200958  -438.8073 352.606341 428660.705 -214330.35 -214330.35 525.008257 -791.41364
                   266.405383 509.073308 -763.76482 254.691508 642996.084 -9.8056014 -642986.28 .428898717 -.10912309 -.31977562
                   .905498E-7 -.42249E-6 .346161E-6        0.0   344.3371   4.166237   3.286123   15.55335   12.26772    .267867
                         420.    .046454    .020997    .302069    .211173   1.471675    .008772      .0093   1621.309   32.42619
                          1.0        0.0        0.0        0.0        0.0
  20500     .0205  152.731223 -442.05886 289.327635 152.731223 -442.05886 289.327635 423384.148 -153623.57 -269760.57        0.0
                          0.0        0.0 156.618124  -457.4659 300.847779  423383.18 -153618.26 -269764.92 614.084026 -758.31368
                   144.229655  594.79008 -731.38649 136.596412 577007.721 116137.002 -693144.72 .404592769 -.04016128 -.36443149
                   .150529E-6 -.44806E-6 .325934E-6        0.0   344.3371   4.166237   3.286123   15.55335   12.26772    .267867
                         420.    .046454    .020997    .302069    .211173   1.471675    .008772      .0093   1621.309   32.42619
                          1.0        0.0        0.0        0.0        0.0
  21000      .021  216.907934 -448.95347 232.045531 216.907934 -448.95347 232.045531 407682.385 -89129.127 -318553.26        0.0
                          0.0        0.0 223.179151 -464.86034  241.68119 407680.557 -89123.572 -318556.98 688.039492 -706.54153
                   18.5020384 665.861399   -680.999 15.1375971 496811.511 229424.131 -726235.64 .370324265 .029789508 -.40011377
                   .234187E-6 -.46851E-6 .234329E-6        0.0   344.3371   4.166237   3.286123   15.55335   12.26772    .267867
[...]
                         420.    .046454    .020997    .302069    .211173   1.471675    .008772      .0093   1621.309   32.42619
                          1.0        0.0        0.0        0.0        0.0
 113000      .113   -271880.9 -154689.46 426570.356  -271880.9 -154689.46 426570.356  -271880.9 -154689.46 426570.357        0.0
                          0.0        0.0 -289120.12 -155513.91 444634.027 -251960.44 -174352.02 426312.457 -133606.22 -600147.93
                   733754.148 -117191.44 -581259.81 698451.256 -117191.44 -581259.81 698451.255 457.827296  -561.9036   104.0763
                   -.31515E-3 -.18294E-3 .468969E-3        0.0   344.3371   4.166237   3.286123   15.55335   12.26772    .267867
                         420.    .046454    .020997    .302069    .211173   1.471675    .008772      .0093   1621.309   32.42619
                          1.0        0.0        0.0        0.0        0.0
 113500     .1135  -200343.25 -239197.23 439540.472 -200343.25 -239197.23 439540.472 -200343.24 -239197.23 439540.473        0.0
                          0.0        0.0 -223968.23 -232477.53 456445.763 -194607.89 -233465.35  428073.24 8509.30361  -688923.3
                   680413.993 38853.9821  -678737.7 639883.718 38853.9843  -678737.7 639883.717 542.609111 -563.35412 20.7450062
                   -.23266E-3 -.24999E-3 .511765E-3        0.0   344.3371   4.166237   3.286123   15.55335   12.26772    .267867
                         420.    .046454    .020997    .302069    .211173   1.471675    .008772      .0093   1621.309   32.42619
                          1.0        0.0        0.0        0.0        0.0
 114000      .114  -134770.18 -293429.12 428199.298 -134770.18 -293429.12 428199.298 -134770.18 -293429.12 428199.298        0.0
                          0.0        0.0 -107957.24 -350185.58 458142.825 -132463.44   -286830.  419293.44 242228.338 -808328.41
                   566100.069  158658.94 -721628.42 562969.477 158658.942 -721628.42 562969.476 454.003475 -350.76593 -103.23754
                   -.14297E-3 -.32506E-3 .497103E-3        0.0   344.3371   4.166237   3.286123   15.55335   12.26772    .267867
                         420.    .046454    .020997    .302069    .211173   1.471675    .008772      .0093   1621.309   32.42619
                          1.0        0.0        0.0        0.0        0.0
 114500     .1145  -48934.314 -362471.68 411405.994 -48934.314 -362471.68 411405.994 -48934.313 -362471.68 411405.993        0.0
                          0.0        0.0  -25954.24 -401775.24 427729.485 -67057.308 -333131.94 400189.244 375821.004 -829504.73
                   453683.725 313537.366 -773877.67 460340.307 313537.368 -773877.67 460340.306 424.456229 -230.90324 -193.55299
                   -.54935E-4 -.42336E-3 .456452E-3        0.0   344.3371   4.166237   3.286123   15.55335   12.26772    .267867
                         420.    .046454    .020997    .302069    .211173   1.471675    .008772      .0093   1621.309   32.42619
                          1.0        0.0        0.0        0.0        0.0
 115000      .115  2380.47212 -377420.91 375040.439 2380.47212 -377420.91 375040.439 2380.47274 -377420.91 375040.439        0.0
                          0.0        0.0 13793.2408 -402909.25 389116.011 .127058E-4 -371231.06  371231.06 416702.492 -792025.26
                    375322.77 379801.384 -752461.35 372659.967 379801.384 -752461.35 372659.966 310.700426 -52.361362 -258.33906
                   .275163E-5 -.41331E-3 .421911E-3        0.0   344.3371   4.166237   3.286123   15.55335   12.26772    .267867
                         420.    .046454    .020997    .302069    .211173   1.471675    .008772      .0093   1621.309   32.42619
                          1.0        0.0        0.0        0.0        0.0
 115500     .1155  52830.1592 -380893.03 328062.873 52830.1592 -380893.03 328062.873 52830.1597 -380893.03 328062.873        0.0
                          0.0        0.0 62253.3126 -396809.96 334556.643 67057.3081 -400189.24 333131.936 459063.268  -731366.6
                    272303.33 433723.191 -708955.91 275232.714 433723.192  -708955.9 275232.713 285.961873 .304250738 -286.26612
                   .578411E-4 -.42956E-3 .342607E-3        0.0   344.3371   4.166237   3.286123   15.55335   12.26772    .267867
                         420.    .046454    .020997    .302069    .211173   1.471675    .008772      .0093   1621.309   32.42619
                          1.0        0.0        0.0        0.0        0.0
 116000      .116  145072.154 -438978.95 293906.795 145072.154 -438978.95 293906.795 145072.155 -438978.95 293906.795        0.0
                          0.0        0.0 114684.892 -410763.99 296079.098 132463.443 -419293.44 286829.997 525448.882 -706843.09
                   181394.206 584051.103 -732885.74 148834.641 584051.104 -732885.74  148834.64 312.649329 -7.7019174 -304.94741
                   .178493E-3 -.50377E-3 .325263E-3        0.0   344.3371   4.166237   3.286123   15.55335   12.26772    .267867
                         420.    .046454    .020997    .302069    .211173   1.471675    .008772      .0093   1621.309   32.42619
                          1.0        0.0        0.0        0.0        0.0
 116500     .1165  178214.418  -411830.1 233615.684 178214.418  -411830.1 233615.684 178214.419  -411830.1 233615.683        0.0
                          0.0        0.0 162181.047 -402768.35   240587.3 194607.888 -428073.24 233465.353 564949.395 -643355.65
                   78406.2529  590044.52 -645445.79 55401.2659 590044.521 -645445.79 55401.2645  376.84993 -62.535294 -314.31464
                   .201055E-3 -.49309E-3 .262976E-3        0.0   344.3371   4.166237   3.286123   15.55335   12.26772    .267867
                         420.    .046454    .020997    .302069    .211173   1.471675    .008772      .0093   1621.309   32.42619
                          1.0        0.0        0.0        0.0        0.0
 117000      .117   237574.82 -407974.77 170399.952  237574.82 -407974.77 170399.952 237574.821 -407974.77 170399.951        0.0
                          0.0        0.0 221232.495 -401714.42  180481.92 251960.441 -426312.46 174352.016  622946.91 -582196.34
                   -40750.574 645549.592 -578374.72 -67174.869 645549.593 -578374.72  -67174.87 437.154904 -95.593181 -341.56172
                    .26655E-3 -.46107E-3  .19455E-3        0.0   344.3371   4.166237   3.286123   15.55335   12.26772    .267867
                         420.    .046454    .020997    .302069    .211173   1.471675    .008772      .0093   1621.309   32.42619
                          1.0        0.0        0.0        0.0        0.0
 117500     .1175  322326.831 -445007.25 122680.419 322326.831 -445007.25 122680.419 322326.832 -445007.25 122680.419        0.0
                          0.0        0.0 323058.609 -457158.24 134099.628 303108.891 -414054.45 110945.554 780216.847 -591257.87
                   -188958.98 767334.082 -567687.67 -199646.41 767334.082 -567687.67 -199646.41 411.412016 -22.557979 -388.85404
                   .369172E-3  -.4741E-3 .134028E-3        0.0   344.3371   4.166237   3.286123   15.55335   12.26772    .267867
                         420.    .046454    .020997    .302069    .211173   1.471675    .008772      .0093   1621.309   32.42619
                          1.0        0.0        0.0        0.0        0.0
 118000      .118  355011.524 -404334.65 49323.1282 355011.524 -404334.65 49323.1282 355011.525 -404334.65 49323.1273        0.0
                          0.0        0.0 395608.228 -458036.64 62428.4161 346793.795 -391601.04 44807.2447 853644.871 -520465.06
                   -333179.81 759346.176 -453657.78  -305688.4 759346.176 -453657.78  -305688.4 372.483257  40.844876 -413.32813
                   .361317E-3 -.41686E-3 .555776E-4        0.0   344.3371   4.166237   3.286123   15.55335   12.26772    .267867
                         420.    .046454    .020997    .302069    .211173   1.471675    .008772      .0093   1621.309   32.42619
                          1.0        0.0        0.0        0.0        0.0
 118500     .1185  404337.211 -390559.51 -13777.704 404337.211 -390559.51 -13777.704 404337.212 -390559.51 -13777.705        0.0
                          0.0        0.0 419833.939 -402543.41 -17290.525 381939.485 -359505.12 -22434.368 822377.354 -385252.89
                   -437124.46 794896.718  -376781.8 -418114.92 794896.718  -376781.8 -418114.92 163.251711 304.555139 -467.80685
                   .480084E-3 -.41866E-3 -.15997E-4        0.0   344.3371   4.166237   3.286123   15.55335   12.26772    .267867
                         420.    .046454    .020997    .302069    .211173   1.471675    .008772      .0093   1621.309   32.42619
                          1.0        0.0        0.0        0.0        0.0
 119000      .119  413421.641 -319610.16 -93811.481 413421.641 -319610.16 -93811.481 413421.641 -319610.16 -93811.482        0.0
                          0.0        0.0 449909.287 -354927.56 -94981.723 407680.557 -318556.98 -89123.572  804836.85 -259945.84
                   -544891.01 733031.802 -225798.68 -507233.12 733031.801 -225798.68 -507233.12  2.1295734  466.28918 -468.41875
                   .447214E-3 -.33542E-3 -.11179E-3        0.0   344.3371   4.166237   3.286123   15.55335   12.26772    .267867
                         420.    .046454    .020997    .302069    .211173   1.471675    .008772      .0093   1621.309   32.42619
                          1.0        0.0        0.0        0.0        0.0
 119500     .1195  416682.971 -254656.58  -162026.4 416682.971 -254656.58  -162026.4 416682.971 -254656.58  -162026.4        0.0
                          0.0        0.0  419971.48 -240837.47 -179134.01  423383.18 -269764.92 -153618.26 660808.948 -61703.458
                   -599105.49 671339.547 -92630.181 -578709.37 671339.547 -92630.179 -578709.37 7.95080952 390.255531 -398.20634
                    .44537E-3 -.27756E-3 -.19692E-3        0.0   344.3371   4.166237   3.286123   15.55335   12.26772    .267867
                         420.    .046454    .020997    .302069    .211173   1.471675    .008772      .0093   1621.309   32.42619
                          1.0        0.0        0.0        0.0        0.0
  % % % % % %   Suspended simulation;  plot data space exhausted;  SPY SPACE is required.   LIMBUF =  840000.
  % % % % % %   Suspended simulation;  plot data space exhausted;  SPY SPACE is required.   LIMBUF =  840000.
  +++  Time-sharing disabled.   Send  user-keyed interrupt to silence alarm.
   Current values.  INDBUF  INDBEG  LIMBUF  MFLUSH  NUMDCD  KCARD1  KCARD2
                    839994      50  840000    1007     230       1     231
Plot timespan now in memory (in sec) = 1.04985997E-01   1.19985000E-01
   ++++  Begin plot-data copy from memory to disk.   MFLUSH, INDBUF, N4, Tbeg,  Tend = 1008  839994       1  -1.00000E+00
1.00000E+19
 120000       .12  430267.851 -214171.91 -216095.94 430267.851 -214171.91 -216095.94 430267.851 -214171.91 -216095.94        0.0
                          0.0        0.0 416804.844 -185153.83 -231651.01 428660.705 -214330.35 -214330.35 601958.676 46497.1792
                   -648455.86 644439.765 1924.02253 -646363.79 644439.764 1924.02416 -646363.79 -95.218561 454.941792 -359.72323
                   .460285E-3 -.23999E-3 -.22031E-3        0.0   344.3371   4.166237   3.286123   15.55335   12.26772    .267867
                         420.    .046454    .020997    .302069    .211173   1.471675    .008772      .0093   1621.309   32.42619
                          1.0        0.0        0.0        0.0        0.0

Extrema of output variables follow.   Order and column positioning are the same as for the preceding time-step loop output.
Variable maxima :   488068.83 493674.046 446682.305  488068.83 493674.046 446682.305  488068.83 505869.812 446682.305        0.0
                          0.0        0.0 626790.008 628492.667 468660.628 428660.705 428660.703 428660.703 .1052217E7 984885.335
                   798496.623 831459.676 836635.895 765541.994 831459.677 836635.896 765541.994 935.745448 1050.91942 532.544879
                   .575354E-3 .578816E-3 .528425E-3        0.0   344.3371   4.166237   3.286123   15.55335   12.26772    .267867
                         420.    .046454    .020997    .302069    .211173   1.471675    .008772      .0093   1621.309   32.42619
                          1.0        0.0        0.0        0.0        0.0
Times of maxima :     .059616    .066632    .113611    .059616    .066632    .113611    .059616    .048182    .113611        0.0
                          0.0        0.0    .060258    .066022    .113618        0.0    .006667    .113333    .056543    .065804
                      .112142    .059555    .065244    .111823    .059555    .065244    .111823    .055626    .061182    .069818
                      .059627    .066624    .093354        0.0        0.0        0.0        0.0        0.0        0.0        0.0
                          0.0        0.0        0.0        0.0        0.0        0.0        0.0        0.0        0.0        0.0
                          0.0        0.0        0.0        0.0        0.0
Variable minima :  -475494.33 -530580.97 -445133.94 -475494.33 -530580.97 -445133.94 -475494.33 -530580.97 -445133.94        0.0
                          0.0        0.0 -591182.91 -654236.32 -466504.93 -428660.71  -428660.7  -428660.7 -.102333E7 -.100813E7
                   -863662.33 -830890.53 -873873.71 -775401.91 -916821.87 -873873.71 -775401.91 -938.06785 -959.90052 -562.93381
                   -.56642E-3 -.65212E-3  -.5306E-3        0.0   344.3371   4.166237   3.286123   15.55335   12.26772    .267867
                         420.    .046454    .020997    .302069    .211173   1.471675    .008772      .0093   1621.309   32.42619
                          1.0        0.0        0.0        0.0        0.0
Times of minima :     .069706    .055768    .083423    .069706    .055768    .083423    .069706    .055768    .083423        0.0
                          0.0        0.0     .06989    .056539    .084142        .01    .016667    .103333    .069723    .055749
                      .060337    .069291    .055753    .061047    .048184    .055753    .061047    .064965    .070739     .05995
                      .069673     .05574    .103569        0.0        0.0        0.0        0.0        0.0        0.0        0.0
                          0.0        0.0        0.0        0.0        0.0        0.0        0.0        0.0        0.0        0.0
                          0.0        0.0        0.0        0.0        0.0

Blank card terminating all plot cards.            |BLANK PLOT

Memory storage figures for the preceding, now-completed data case.  -------------------------------  Present   Program
A value of  "-9999"  indicates that no figure is available.         28-Feb-22  19:04:56              figure     limit  (name)
     Size List 1.   Number of electric network nodes.                                                   37      6000  (LBUS)
     Size List 2.   Number of electric network branches.                                                39     10000  (LBRNCH)
     Size List 3.   Number of data values in R, L, C tables.                                            45    192000  (LDATA)
     Size List 4.   Number of electric network sources.                                                  3       900  (LEXCT)
     Size List 5.   Storage for [Y] and triangularized [Y].   No. times =    3     Factors =    66     189    420000  (LYMAT)
     Size List 6.   Number of entries in switch table.                  No. flops = 18                  21      1200  (LSWTCH)
     Size List 7.   Number of distinct ALPHANUMERIC data names plus program SPY variables.              25     15000  (LSIZE7)
     Size List 8.   History points of distributed lines.                                              3950    120000  (LPAST)
     Size List 9.   Number of nonlinear elements.                                                        0      2250  (LNONL)
     Size List 10.  Points of nonlinear characteristics.                                                 0      3800  (LCHAR)
     Size List 11.  Number of Type-59 S.M. outputs.                                                      0       720  (LSMOUT)
     Size List 12.  Total number of EMTP output variables.                                              55      2000  (LSIZ12)
     Size List 13.  Working space for batch/SPY plotting.                                            -9999     72800  (LSIZ13)
     Size List 14.  S.M./U.M. connections to TACS.                                                   -9999       510  (LBSTAC)
     Size List 15.  Character storage in bytes for MODELS.                                            3297     90000  (LCTACS)
     Size List 16.  Total number of Type-59 S.M. masses.                                                 0       800  (LIMASS)
     Size List 17.  Number of Type-59 Synchronous machines.                                              0        90  (LSYN)
     Size List 18.  Branch and switch power/energy outputs.                                              0       254  (MAXPE)
     Size List 19.  Total floating-point TACS table space.                                              23    120000  (LTACST)
     Size List 20.  Non-copied recursive convolution data.                                               0    100000  (LFSEM)
     Size List 21.  Total modal/phase [T] matrix storage.                                                9      3000  (LFD)
     Size List 22.  Total recursive convolution history.                                                 0     15000  (LHIST)
     Size List 23.  Giant vectors for renumbering, phasors;  also extrema accumulation.                  93    192000  (LSIZ23)
     Size List 24.  Peak phases of compensation for data.                                                0       120  (LCOMP)
     Size List 25.  Total table space for all U.M usage.                                             -9999     45000  (LSPCUM)
     Size List 26.  Square of max number of coupled phases.                                              9    260000  (LSIZ26)
     Size List 27.  Maximum number of MODELS top variables.                                             44       600  (LSIZ27)
     Size List 28.  MODELS.  Total work space is divided into INTEGER and REAL.  1st, REAL:           1780    210000  (LRTACS)
                             Second  and last,  statistics for INTEGER work space.                    6838         0  (LITACS)
     Size List 29.  RAM disk used by "TAPSAV" table saving (limit is "LABCOM" size LTLABL).          -9999       600  (LSIZ29)
     Size List 30.  Taku Noda frequency-dependent circuits.                                              0        19  (LSIZ30)
Timing figures characterizing central processor (CP) solution speed.  ----------------------------   CP sec  Wait sec  Real sec
     Data input time (through blank card ending branches) ....                                       0.031     0.000     0.031
     Node renumbering and phasor solution  ....                                                      0.031     0.000     0.031
     After phasor solution, but before time-step loop  ....                                          0.000     0.000     0.000
     Integration of equations (time-step loop)  ....                                                 1.203     0.000     1.203
     Plotting or STATISTICS termination overlays ....                                                0.000     0.000     0.000
                                                                                                    ---------------------------
                                                                                          Totals      1.266     0.000     1.266

