   ---   236   cards of disk file read into card cache cells  1   onward.
 Comment card is ignored.      |C   LBUS  LBRNCH   LDATA   LEXCT   LYMAT  LSWTCH
 Limit CIDEAL cards =   200    |CARDS        200 { Limit of CIDEAL will be 2 mor
 1st card (Lists  1-10).       |    6000   10000  192000     900  420000    120
 Comment card is ignored.      |C LSMOUT  LSIZ12  LSIZ13  LBSTAC  LCTACS  LIMASS
 2nd card (Lists 11-20).       |     720    2000   72800     510   90000     80
 Comment card is ignored.      |C    LFD   LHIST  LSIZ23   NCOMP  LSPCUM  LSIZ26
 3rd card (Lists 21-30).       |    3000   15000  192000     120   45000  26000
 4th card (Lists 31-32).       |     200     300     { Optional card for Lists
 Comment card is ignored.      |C  LWORK  LMARTI
 Supplemental offsets.         |  840000     742
 <===> Done with  "/"-card sorting by data class.    Remember that the source file appears different from interpreted input data.
Alternative Transients Program (ATP),  GNU Linux or DOS.  All rights reserved by Can/Am user group of Portland, Oregon, USA.
 Date (dd-mth-yy) and time of day (hh.mm.ss) = 28-Feb-22  19:40:09   Name of disk plot file is  p\bdfinalisima\energizacion1499.pl4
Consult the 860-page ATP Rule Book of the Can/Am EMTP User Group in Portland,  Oregon, USA.  Source code date is 12 August 2008.
Total size of LABCOM tables = 10913436 INTEGER words.  31 VARDIM  List Sizes follow:  6002  10K  192K  900  420K  1200  15K
  120K  2250  3800  720  2K  72800  510  90K  800  90  254  120K  100K  3K  15K  192K  120  45K  260K  600  210K  1100  60  200
--------------------------------------------------+--------------------------------------------------------------------------------
Descriptive interpretation of input data cards.   |  Input data card images are shown below, all 80 columns, character by character
                                                  0         1         2         3         4         5         6         7         8
                                                  012345678901234567890123456789012345678901234567890123456789012345678901234567890
--------------------------------------------------+--------------------------------------------------------------------------------
Comment card.   NUMDCD = 1.                       |C data:D:\ATP\BDFINALISIMA\ENERGIZACION1499.ATP
Marker card preceding new EMTP data case.         |BEGIN NEW DATA CASE
Comment card.   NUMDCD = 3.                       |C --------------------------------------------------------
Comment card.   NUMDCD = 4.                       |C Generated by ATPDRAW  febrero, lunes 28, 2022
Comment card.   NUMDCD = 5.                       |C A Bonneville Power Administration program
Comment card.   NUMDCD = 6.                       |C by H. K. Høidalen at SEfAS/NTNU - NORWAY 1994-2016
Comment card.   NUMDCD = 7.                       |C --------------------------------------------------------
Comment card.   NUMDCD = 8.                       |C  dT  >< Tmax >< Xopt >< Copt ><Epsiln>
Misc. data.     1.000E-06   1.200E-01   5.000E+01 |   1.E-6     .12     50.
Misc. data.    500    1  0  1  1  0  0  0  0  0   |     500       1       0       1       1       0       0       0       0
  ///  Warning.  Nonzero XOPT or COPT differs from the power frequency of  6.00000000E+01  Hz.   Did the user really want this?
No TACS data,  but MODELS data begins (next).     |MODELS
      Another ordinary MODELS data card.          |OUTPUT
      Another ordinary MODELS data card.          |  AnVol
      Another ordinary MODELS data card.          |  LONG
      Another ordinary MODELS data card.          |  R0F
      Another ordinary MODELS data card.          |  R1F
      Another ordinary MODELS data card.          |  X0F
      Another ordinary MODELS data card.          |  X1F
      Another ordinary MODELS data card.          |  RDIVX
      Another ordinary MODELS data card.          |  RINSER
      Another ordinary MODELS data card.          |  CLOSE1
      Another ordinary MODELS data card.          |  RPpos
      Another ordinary MODELS data card.          |  RPcero
      Another ordinary MODELS data card.          |  LPpos
      Another ordinary MODELS data card.          |  LPcero
      Another ordinary MODELS data card.          |  CPpos
      Another ordinary MODELS data card.          |  CPcero
      Another ordinary MODELS data card.          |  Xp
      Another ordinary MODELS data card.          |  CR
      Another ordinary MODELS data card.          |  SIMET
      Another ordinary MODELS data card.          |  ENC1
      Another ordinary MODELS data card.          |  ENC2
      Another ordinary MODELS data card.          |  ENC1AS
      Another ordinary MODELS data card.          |  ENC2AS
      Another ordinary MODELS data card.          |MODEL DEFAULT
      Another ordinary MODELS data card.          |DATA AnVol,LONG,R0F,R1F,X0F,X1F,RDIVX,RINSER,CLOSE1,RPpos,RPcero,LPpos,LPcero
      Another ordinary MODELS data card.          |OUTPUT o1,o2,o3, o4, o5, o6, o7, o8, o9, o10, o11, o12, o13
      Another ordinary MODELS data card.          |VAR o1,o2,o3, o4, o5, o6, o7, o8, o9, o10, o11, o12, o13
      Another ordinary MODELS data card.          |INIT
      Another ordinary MODELS data card.          |  o1:=AnVol
      Another ordinary MODELS data card.          |  o2:=LONG
      Another ordinary MODELS data card.          |  o3:=R0F
      Another ordinary MODELS data card.          |  o4:=R1F
      Another ordinary MODELS data card.          |  o5:=X0F
      Another ordinary MODELS data card.          |  O6:=X1F
      Another ordinary MODELS data card.          |  o7:=RDIVX
      Another ordinary MODELS data card.          |  o8:=RINSER
      Another ordinary MODELS data card.          |  o9:=CLOSE1
      Another ordinary MODELS data card.          |  o10:=RPpos
      Another ordinary MODELS data card.          |  o11:=RPcero
      Another ordinary MODELS data card.          |  o12:=LPpos
      Another ordinary MODELS data card.          |  o13:=LPcero
      Another ordinary MODELS data card.          |
      Another ordinary MODELS data card.          |ENDINIT
      Another ordinary MODELS data card.          |EXEC
      Another ordinary MODELS data card.          |ENDEXEC
      Another ordinary MODELS data card.          |ENDMODEL
      Another ordinary MODELS data card.          |MODEL DEFAULT1
      Another ordinary MODELS data card.          |DATA CPpos,CPcero,Xp,CR,SIMET,ENC1,ENC2,ENC1AS,ENC2AS
      Another ordinary MODELS data card.          |OUTPUT o1, o2, o3, o4, o5, o6, o7, o8, o9
      Another ordinary MODELS data card.          |VAR o1, o2, o3, o4, o5, o6, o7, o8, o9
      Another ordinary MODELS data card.          |INIT
      Another ordinary MODELS data card.          |  o1:=CPpos
      Another ordinary MODELS data card.          |  o2:=CPcero
      Another ordinary MODELS data card.          |  o3:=Xp
      Another ordinary MODELS data card.          |  o4:=CR
      Another ordinary MODELS data card.          |  o5:=SIMET
      Another ordinary MODELS data card.          |  o6:=ENC1
      Another ordinary MODELS data card.          |  o7:=ENC2
      Another ordinary MODELS data card.          |  o8:=ENC1AS
      Another ordinary MODELS data card.          |  o9:=ENC2AS
      Another ordinary MODELS data card.          |
      Another ordinary MODELS data card.          |ENDINIT
      Another ordinary MODELS data card.          |EXEC
      Another ordinary MODELS data card.          |ENDEXEC
      Another ordinary MODELS data card.          |ENDMODEL
      Another ordinary MODELS data card.          |USE DEFAULT AS DEFAULT
      Another ordinary MODELS data card.          |DATA
      Another ordinary MODELS data card.          |  AnVol:=      0.0
      Another ordinary MODELS data card.          |  LONG:= 11.33955
      Another ordinary MODELS data card.          |  R0F:= 1.459433
      Another ordinary MODELS data card.          |  R1F:= 1.717057
      Another ordinary MODELS data card.          |  X0F:= 8.152838
      Another ordinary MODELS data card.          |  X1F:= 9.592007
      Another ordinary MODELS data card.          |  RDIVX:= 0.179009
      Another ordinary MODELS data card.          |  RINSER:=    1.E-6
      Another ordinary MODELS data card.          |  CLOSE1:= 0.057792
      Another ordinary MODELS data card.          |  RPpos:= 0.017505
      Another ordinary MODELS data card.          |  RPcero:= 0.205194
      Another ordinary MODELS data card.          |  LPpos:= 0.302879
      Another ordinary MODELS data card.          |  LPcero:= 1.201251
      Another ordinary MODELS data card.          |OUTPUT
      Another ordinary MODELS data card.          |  AnVol:=o1
      Another ordinary MODELS data card.          |  LONG:=o2
      Another ordinary MODELS data card.          |  R0F:=o3
      Another ordinary MODELS data card.          |  R1F:=o4
      Another ordinary MODELS data card.          |  X0F:=o5
      Another ordinary MODELS data card.          |  X1F:=o6
      Another ordinary MODELS data card.          |  RDIVX:=o7
      Another ordinary MODELS data card.          |  RINSER:=o8
      Another ordinary MODELS data card.          |  CLOSE1:=o9
      Another ordinary MODELS data card.          |  RPpos:=o10
      Another ordinary MODELS data card.          |  RPcero:=o11
      Another ordinary MODELS data card.          |  LPpos:=o12
      Another ordinary MODELS data card.          |  LPcero:=o13
      Another ordinary MODELS data card.          |ENDUSE
      Another ordinary MODELS data card.          |USE DEFAULT1 AS DEF
      Another ordinary MODELS data card.          |DATA
      Another ordinary MODELS data card.          |  CPpos:= 0.014752
      Another ordinary MODELS data card.          |  CPcero:= 0.009162
      Another ordinary MODELS data card.          |  Xp:= 29273.88
      Another ordinary MODELS data card.          |  CR:= 585.4776
      Another ordinary MODELS data card.          |  SIMET:=      0.0
      Another ordinary MODELS data card.          |  ENC1:=      0.0
      Another ordinary MODELS data card.          |  ENC2:=      0.0
      Another ordinary MODELS data card.          |  ENC1AS:=      0.0
      Another ordinary MODELS data card.          |  ENC2AS:=       1.
      Another ordinary MODELS data card.          |OUTPUT
      Another ordinary MODELS data card.          |  CPpos:=o1
      Another ordinary MODELS data card.          |  CPcero:=o2
      Another ordinary MODELS data card.          |  Xp:=o3
      Another ordinary MODELS data card.          |  CR:=o4
      Another ordinary MODELS data card.          |  SIMET:=o5
      Another ordinary MODELS data card.          |  ENC1:=o6
      Another ordinary MODELS data card.          |  ENC2:=o7
      Another ordinary MODELS data card.          |  ENC1AS:=o8
      Another ordinary MODELS data card.          |  ENC2AS:=o9
      Another ordinary MODELS data card.          |ENDUSE
      Another ordinary MODELS data card.          |RECORD
      Another ordinary MODELS data card.          |  DEFAULT.o1 AS AnVOL
      Another ordinary MODELS data card.          |  DEFAULT.o2 AS LONG
      Another ordinary MODELS data card.          |  DEFAULT.o3 AS R0F
      Another ordinary MODELS data card.          |  DEFAULT.o4 AS R1F
      Another ordinary MODELS data card.          |  DEFAULT.o5 AS X0F
      Another ordinary MODELS data card.          |  DEFAULT.o6 AS X1F
      Another ordinary MODELS data card.          |  DEFAULT.o7 AS RDIVX
      Another ordinary MODELS data card.          |  DEFAULT.o8 AS RINSER
      Another ordinary MODELS data card.          |  DEFAULT.o9 AS CLOSE1
      Another ordinary MODELS data card.          |  DEFAULT.o10 AS RPpos
      Another ordinary MODELS data card.          |  DEFAULT.o11 AS RPcero
      Another ordinary MODELS data card.          |  DEFAULT.o12 AS LPpos
      Another ordinary MODELS data card.          |  DEFAULT.o13 AS LPcero
      Another ordinary MODELS data card.          |  DEF.o1 AS CPpos
      Another ordinary MODELS data card.          |  DEF.o2 AS CPcero
      Another ordinary MODELS data card.          |  DEF.o3 AS Xp
      Another ordinary MODELS data card.          |  DEF.o4 AS CR
      Another ordinary MODELS data card.          |  DEF.o5 AS SIMET
      Another ordinary MODELS data card.          |  DEF.o6 AS ENC1
      Another ordinary MODELS data card.          |  DEF.o7 AS ENC2
      Another ordinary MODELS data card.          |  DEF.o8 AS ENC1AS
      Another ordinary MODELS data card.          |  DEF.o9 AS ENC2AS
Termination of data for Laurent Dube`s MODELS.    |ENDMODELS
Comment card.   NUMDCD = 153.                     |C        1         2         3         4         5         6         7         8
Comment card.   NUMDCD = 154.                     |C 345678901234567890123456789012345678901234567890123456789012345678901234567890
Optional blank card follows last of MODELS data.  |BLANK MODELS
Comment card.   NUMDCD = 156.                     |C < n1 >< n2 ><ref1><ref2>< R  >< L  >< C  >
Comment card.   NUMDCD = 157.                     |C < n1 >< n2 ><ref1><ref2>< R  >< A  >< B  ><Leng><><>0
1st of coupled R-L.   1.45940E+00  2.59513E-02    |51IFUENASB1A              1.45948.1528383634
2nd coil. 1.717E+00 3.053E-02 0.000E+00 0.000E+00 |52IFUENBSB1B              1.71719.5920065202
Zca, Zcc=-8.590E-02-1.527E-03 1.631E+00 2.901E-02 |53IFUENCSB1C
Series R-L-C.   1.000E+09  0.000E+00  0.000E+00   |  SB1A                      1.E9                                               0
Series R-L-C.   1.000E+09  0.000E+00  0.000E+00   |  SB1B                      1.E9                                               0
Series R-L-C.   1.000E+09  0.000E+00  0.000E+00   |  SB1C                      1.E9                                               0
Series R-L-C.   1.000E+09  0.000E+00  0.000E+00   |  RSNSHA                    1.E9                                               0
Series R-L-C.   1.000E+09  0.000E+00  0.000E+00   |  RSNSHB                    1.E9                                               0
Series R-L-C.   1.000E+09  0.000E+00  0.000E+00   |  RSNSHC                    1.E9                                               0
Series R-L-C.   5.855E+02  9.318E+01  0.000E+00   |  RSNNHA                  585.4829274.                                         0
Series R-L-C.   5.855E+02  9.318E+01  0.000E+00   |  RSNNHB                  585.4829274.                                         0
Series R-L-C.   5.855E+02  9.318E+01  0.000E+00   |  RSNNHC                  585.4829274.                                         0
Series R-L-C.   1.000E+09  0.000E+00  0.000E+00   |  SE2A                      1.E9                                               0
Series R-L-C.   1.000E+09  0.000E+00  0.000E+00   |  SE2B                      1.E9                                               0
Series R-L-C.   1.000E+09  0.000E+00  0.000E+00   |  SE2C                      1.E9                                               0
Series R-L-C.   2.500E+02  0.000E+00  3.000E-10   |  X0001B                    250.       .0003                                   0
Series R-L-C.   2.500E+02  0.000E+00  3.000E-10   |  X0002B                    250.       .0003                                   0
Series R-L-C.   1.000E-06  0.000E+00  0.000E+00   |  X0001ALN1A               1.E-6                                               0
Series R-L-C.   1.000E-06  0.000E+00  0.000E+00   |  SB1A  X0002A             1.E-6                                               0
Series R-L-C.   1.000E-06  0.000E+00  0.000E+00   |  X0001BLN1B               1.E-6                                               0
Series R-L-C.   1.000E-06  0.000E+00  0.000E+00   |  SB1B  X0002B             1.E-6                                               0
Series R-L-C.   1.000E-06  0.000E+00  0.000E+00   |  X0001CLN1C               1.E-6                                               0
Series R-L-C.   1.000E-06  0.000E+00  0.000E+00   |  SB1C  X0002C             1.E-6                                               0
Series R-L-C.   1.000E-06  0.000E+00  0.000E+00   |  XX0005X0002A             1.E-6                                               0
Series R-L-C.   1.000E-06  0.000E+00  0.000E+00   |  XX0003X0002B             1.E-6                                               0
Series R-L-C.   1.000E-06  0.000E+00  0.000E+00   |  XX0004X0002C             1.E-6                                               0
Series R-L-C.   2.500E+02  0.000E+00  3.000E-10   |  X0001A                    250.       .0003                                   0
Series R-L-C.   1.000E+06  0.000E+00  0.000E+00   |  X0001AX0002A              1.E6                                               0
Series R-L-C.   1.000E+06  0.000E+00  0.000E+00   |  X0001BX0002B              1.E6                                               0
Series R-L-C.   1.000E+06  0.000E+00  0.000E+00   |  X0001CX0002C              1.E6                                               0
Series R-L-C.   2.500E+02  0.000E+00  3.000E-10   |  X0002C                    250.       .0003                                   0
Series R-L-C.   2.500E+02  0.000E+00  3.000E-10   |  X0002A                    250.       .0003                                   0
Series R-L-C.   2.500E+02  0.000E+00  3.000E-10   |  X0001C                    250.       .0003                                   0
Series R-L-C.   1.250E+02  0.000E+00  6.000E-10   |  X0001AX0002A              125.       .0006                                   0
Series R-L-C.   1.250E+02  0.000E+00  6.000E-10   |  X0001BX0002B              125.       .0006                                   0
Series R-L-C.   1.250E+02  0.000E+00  6.000E-10   |  X0001CX0002C              125.       .0006                                   0
 2.052E-01 1.201E+00 9.160E-03 6.461E+02 6.711E-05|-1LN1A  VFF2A             .205191.2013.00916 11.34 0 0                         0
 1.751E-02 3.029E-01 1.475E-02 2.557E+02 4.276E-05|-2LN1B  VFF2B             .01751.30288.01475 11.34 0 0                         0
3rd or later transposed distributed phase.        |-3LN1C  VFF2C                                                                  0
Blank card ending branches.  IBR, NTOT = 39  31   |BLANK BRANCH
Comment card.   NUMDCD = 198.                     |C < n 1>< n 2>< Tclose ><Top/Tde ><   Ie   ><Vf/CLOP ><  type  >
Switch.  -1.00E+00  1.00E+01  0.00E+00  0.00E+00  |  LN1A  COMPA        -1.       10.                                             0
Switch.  -1.00E+00  1.00E+01  0.00E+00  0.00E+00  |  LN1B  COMPB        -1.       10.                                             0
Switch.  -1.00E+00  1.00E+01  0.00E+00  0.00E+00  |  LN1C  COMPC        -1.       10.                                             0
Switch.  -1.00E+00  1.00E+01  0.00E+00  0.00E+00  |  VFF2A RSNNHA       -1.       10.                                             0
Switch.  -1.00E+00  1.00E+01  0.00E+00  0.00E+00  |  VFF2B RSNNHB       -1.       10.                                             0
Switch.  -1.00E+00  1.00E+01  0.00E+00  0.00E+00  |  VFF2C RSNNHC       -1.       10.                                             0
Switch.   2.00E+00 -1.00E+00  0.00E+00  0.00E+00  |  VFF2A SE2A          2.       -1.                                             0
Switch.   2.00E+00 -1.00E+00  0.00E+00  0.00E+00  |  VFF2B SE2B          2.       -1.                                             0
Switch.   2.00E+00 -1.00E+00  0.00E+00  0.00E+00  |  VFF2C SE2C          2.       -1.                                             0
Switch.   5.78E-02  1.00E+03  0.00E+00  0.00E+00  |  X0001BXX0003.057792386      1.E3                                             0
Switch.   5.78E-02  1.00E+03  0.00E+00  0.00E+00  |  X0001CXX0004.057792386      1.E3                                             0
Switch.   6.53E-02  1.00E+03  0.00E+00  0.00E+00  |  XX0005X0002A.065292386      1.E3                                             0
Switch.   6.53E-02  1.00E+03  0.00E+00  0.00E+00  |  XX0003X0002B.065292386      1.E3                                             0
Switch.   6.53E-02  1.00E+03  0.00E+00  0.00E+00  |  XX0004X0002C.065292386      1.E3                                             0
Switch.   5.78E-02  1.00E+03  0.00E+00  0.00E+00  |  X0001AXX0005.057792386      1.E3                                             0
Permanently-closed switch used for metering.      |  VFUENAIFUENA                                        MEASURING                1
Permanently-closed switch used for metering.      |  VFUENBIFUENB                                        MEASURING                1
Permanently-closed switch used for metering.      |  VFUENCIFUENC                                        MEASURING                1
Permanently-closed switch used for metering.      |  COMPA RSNSHA                                        MEASURING                1
Permanently-closed switch used for metering.      |  COMPB RSNSHB                                        MEASURING                1
Permanently-closed switch used for metering.      |  COMPC RSNSHC                                        MEASURING                1
Blank card ending switches.   KSWTCH = 21.        |BLANK SWITCH
Comment card.   NUMDCD = 221.                     |C < n 1><>< Ampl.  >< Freq.  ><Phase/T0><   A1   ><   T1   >< TSTART >< TSTOP  >
Source.   4.29E+05  5.00E+01  0.00E+00 -1.00E+00  |14VFUENA  428660.705       50.                                     -1.      100.
Source.   4.29E+05  5.00E+01 -1.20E+02 -1.00E+00  |14VFUENB  428660.705       50.     -120.                           -1.      100.
Source.   4.29E+05  5.00E+01 -2.40E+02 -1.00E+00  |14VFUENC  428660.705       50.     -240.                           -1.      100.
Blank card ends electric sources.  KCONST = 3     |BLANK SOURCE
Pi-equivalent branches of distributed circuits are added to the table of List Size 3 between indices  40   and  45.

Sinusoidal steady-state phasor solution, branch by branch.   All flows are away from a bus,  and the real part,  magnitude,  or  "P"
is printed above the imaginary part,  the angle,  or  "Q".   The first solution frequency  =  5.00000000E+01  Hertz.
  Bus K                        Phasor  node  voltage              Phasor  branch  current               Power flow       Power loss
             Bus M         Rectangular            Polar          Rectangular            Polar            P  and  Q        P  and  Q

 IFUENA                    428660.705       428660.705       .4185461891543  .44209799923842      89707.152258973  .16780414777048
                                  0.0              0.0      .14237179662779       18.7861428      -30514.59735729        0.9373819

            SB1A      428661.35194554   428661.3519667      -.4185461891543  .44209799923842      -89706.98445483
                      -4.259164387366       -0.0005693      -.1423717966278     -161.2138572      30515.534739204

 IFUENB                  -214330.3525       428660.705      -.0859755019115  .44209799923879      89707.152258793  .16780414777073
                      -371231.0601341     -120.0000000      -.4336575307798     -101.2138572      -30514.59735807        0.9373819

            SB1B      -214334.3645173   428661.3519667      .08597550191151  .44209799923879      -89706.98445465
                      -371229.4908232     -120.0005693      .43365753077976       78.7861428      30515.534739977

 IFUENC                  -214330.3525       428660.705      -.3325706872478  .44209799924028      89707.152258599  .16780414777342
                      371231.06013415      120.0000000      .29128573414393      138.7861428      -30514.59735963        0.9373819

            SB1C      -214326.9874282   428661.3519667      .33257068724783  .44209799924028      -89706.98445445
                      371233.74998761      119.9994307      -.2912857341439      -41.2138572      30515.534741543

 SB1A                 428661.35194554   428661.3519667      .42866135195E-3  .42866135197E-3      91.875277334959  91.875277334959
                      -4.259164387366       -0.0005693      -.4259164387E-8       -0.0005693      -.263109609E-19        0.0000000

            TERRA                 0.0              0.0      -.4286613519E-3  .42866135197E-3                  0.0
                                  0.0              0.0      .42591643874E-8      179.9994307                  0.0

 SB1B                 -214334.3645173   428661.3519667      -.2143343645E-3  .42866135197E-3      91.875277334959  91.875277334959
                      -371229.4908232     -120.0005693      -.3712294908E-3     -120.0005693      -.400374178E-14        0.0000000

            TERRA                 0.0              0.0      .21433436452E-3  .42866135197E-3                  0.0
                                  0.0              0.0      .37122949082E-3       59.9994307                  0.0

 SB1C                 -214326.9874282   428661.3519667      -.2143269874E-3  .42866135197E-3      91.875277334959  91.875277334959
                      371233.74998761      119.9994307      .37123374999E-3      119.9994307      -.263677968E-15        0.0000000

            TERRA                 0.0              0.0      .21432698743E-3  .42866135197E-3                  0.0
                                  0.0              0.0        -.37123375E-3      -60.0005693                  0.0

 RSNSHA               6340.1451823695  23251.026541049      .63401451824E-5  .23251026541E-4      .27030511760629  .27030511760629
                      -22369.90823135      -74.1760535      -.2236990823E-4      -74.1760535      -.506864516E-17        0.0000000

            TERRA                 0.0              0.0      -.6340145182E-5  .23251026541E-4                  0.0
                                  0.0              0.0      .22369908231E-4      105.8239465                  0.0

 RSNSHB               -22542.98139984  23251.026541095       -.225429814E-4  .23251026541E-4      .27030511760735  .27030511760735
                      5694.2273243347      165.8239465      .56942273243E-5      165.8239465      -.181603864E-17        0.0000000

            TERRA                 0.0              0.0        .225429814E-4  .23251026541E-4                  0.0
                                  0.0              0.0      -.5694227324E-5      -14.1760535                  0.0

 RSNSHC               16202.836217724  23251.026541277      .16202836218E-4  .23251026541E-4      .27030511761158  .27030511761158
                       16675.68090738       45.8239465      .16675680907E-4       45.8239465      .3320369153E-17        0.0000000

            TERRA                 0.0              0.0      -.1620283622E-4  .23251026541E-4                  0.0
                                  0.0              0.0      -.1667568091E-4     -134.1760535                  0.0

 RSNNHA               6339.9554018302  23250.394769188      -.7595003351063  .79407481330851      184.58861482499  184.58861482499
                      -22369.30536306      -74.1760984      -.2317629178803     -163.0303356      9229.4307412496     9229.4307412

            TERRA                 0.0              0.0      .75950033510628  .79407481330851                  0.0
                                  0.0              0.0      .23176291788031       16.9696644                  0.0

 RSNNHB               -22542.36441032  23250.394769234      .17903759302291  .79407481331006      184.58861482571  184.58861482571
                      5694.0902449582      165.8239016      .77362804332442       76.9696644      9229.4307412857     9229.4307413

            TERRA                 0.0              0.0      -.1790375930229  .79407481331006                  0.0
                                  0.0              0.0      -.7736280433244     -103.0303356                  0.0

 RSNNHC                16202.40900874  23250.394769416      .58046274209597  .79407481331627       184.5886148286   184.5886148286
                      16675.215118467       45.8239016      -.5418651254525      -43.0303356        9229.43074143     9229.4307414

            TERRA                 0.0              0.0       -.580462742096  .79407481331627                  0.0
                                  0.0              0.0      .54186512545254      136.9696644                  0.0

 X0001B               -22542.98139996  23251.026541111      -.5367183419E-3  .00219135762449       .6002560298E-3   .6002560298E-3
                      5694.2273239237      165.8239465      -.0021246132966     -104.1774035      -25.47565713698      -25.4756571

            TERRA                 0.0              0.0      .53671834188E-3  .00219135762449                  0.0
                                  0.0              0.0      .00212461329656       75.8225965                  0.0

 X0002B               -214334.3645172  428661.35196628      .03498707925156  .04040038061524      .20402384423233  .20402384423233
                      -371229.4908228     -120.0005693       -.020201362313      -30.0019193      -8659.040884837    -8659.0408848

            TERRA                 0.0              0.0      -.0349870792516  .04040038061524                  0.0
                                  0.0              0.0      .02020136231301      149.9980807                  0.0

 X0001A               6340.1451827855  23251.026541065      .41599923861213  .42817251846506      184.90349001253  .91665852686E-7
                      -22369.90823125      -74.1760535      .10137227945961       13.6951372      -4974.289880653              0.0

            LN1A      6340.1451823695  23251.026541049      -.4159992386121  .42817251846506      -184.9034899209
                      -22369.90823135      -74.1760535      -.1013722794596     -166.3048628      4974.2898806534

 SB1A                 428661.35194554   428661.3519667      .41810562834144  .44168093268959      89612.558757987  .97541018818E-7
                      -4.259164387366       -0.0005693      .14237180145926       18.8045480      -30515.53483653        0.0000000

            X0002A    428661.35194512  428661.35196628      -.4181056283414  .44168093268959      -89612.55875789
                      -4.259164529737       -0.0005693      -.1423718014593     -161.1954520      30515.534836526

 X0001B               -22542.98139996  23251.026541111      -.1202060957439  .42817218928793       184.8735482949  .91665711799E-7
                      5694.2273239237      165.8239465       -.410952452512     -106.3045195      -4974.287164066        0.0000000

            LN1B      -22542.98139984  23251.026541095      .12020609574392  .42817218928793      -184.8735482032
                      5694.2273243347      165.8239465      .41095245251199       73.6954805      4974.2871640664

 SB1B                 -214334.3645173   428661.3519667      -.0857398845255  .44164227185726      89604.163633523  .97523951581E-7
                      -371229.4908232     -120.0005693      -.4332396201789     -101.1944169      -30514.48249956        0.0000000

            X0002B    -214334.3645172  428661.35196628      .08573988452554  .44164227185726      -89604.16363343
                      -371229.4908228     -120.0005693      .43323962017894       78.8055831      30514.482499562

 X0001C               16202.836217428  23251.026541293      -.2957913238788  .42817134592053      184.87815324706  .91665350643E-7
                       16675.68090769       45.8239465      .30957744456828      133.6954232      -4974.277181608        0.0000000

            LN1C      16202.836217724  23251.026541277       .2957913238788  .42817134592053      -184.8781531554
                       16675.68090738       45.8239465      -.3095774445683      -46.3045768      4974.2771816079

 SB1C                 -214326.9874282   428661.3519667      -.3323366399854  .44168222504306      89614.367379093  .97541587252E-7
                      371233.74998761      119.9994307      .29092188924551      138.8016442      -30511.08251058              0.0

            X0002C    -214326.9874279  428661.35196628      .33233663998544  .44168222504306        -89614.367379
                      371233.74998732      119.9994307      -.2909218892455      -41.1983558      30511.082510583

 XX0005               428661.35194512  428661.35196628                  0.0              0.0                  0.0              0.0
                      -4.259164529737       -0.0005693                  0.0              0.0                  0.0              0.0

            X0002A    428661.35194512  428661.35196628                  0.0              0.0                  0.0
                      -4.259164529737       -0.0005693                  0.0              0.0                  0.0

 XX0003               -214334.3645172  428661.35196628                  0.0              0.0                  0.0              0.0
                      -371229.4908228     -120.0005693                  0.0              0.0                  0.0              0.0

            X0002B    -214334.3645172  428661.35196628                  0.0              0.0                  0.0
                      -371229.4908228     -120.0005693                  0.0              0.0                  0.0

 XX0004               -214326.9874279  428661.35196628                  0.0              0.0                  0.0              0.0
                      371233.74998732      119.9994307                  0.0              0.0                  0.0              0.0

            X0002C    -214326.9874279  428661.35196628                  0.0              0.0                  0.0
                      371233.74998732      119.9994307                  0.0              0.0                  0.0

 X0001A               6340.1451827855  23251.026541065      .00210832825897  .00219135762449       .6002560298E-3   .6002560298E-3
                      -22369.90823125      -74.1760535      .59749492955E-3       15.8225965      -25.47565713688      -25.4756571

            TERRA                 0.0              0.0       -.002108328259  .00219135762449                  0.0
                                  0.0              0.0      -.5974949296E-3     -164.1774035                  0.0

 X0001A               6340.1451827855  23251.026541065      -.4223212067623  .42291302171885      -1088.630123744  89427.711969686
                      -22369.90823125      -74.1760535      -.0223656490667     -176.9685129      4794.5440507871        0.0000000

            X0002A    428661.35194512  428661.35196628      .42232120676234  .42291302171885       90516.34209343
                      -4.259164529737       -0.0005693      .02236564906672        3.0314871      -4794.544050787

 X0001B               -22542.98139996  23251.026541111      .19179138311728  .42291302171911       -1088.63012369  89427.711969793
                      5694.2273239237      165.8239465      .37692371814672       63.0314871      4794.5440508123        0.0000000

            X0002B    -214334.3645172  428661.35196628      -.1917913831173  .42291302171911      90516.342093483
                      -371229.4908228     -120.0005693      -.3769237181467     -116.9685129      -4794.544050812

 X0001C               16202.836217428  23251.026541293      .23052982364531   .4229130217189      -1088.630123731  89427.711969707
                       16675.68090769       45.8239465      -.3545580690796      -56.9685129        4794.54405084        0.0000000

            X0002C    -214326.9874279  428661.35196628      -.2305298236453   .4229130217189      90516.342093438
                      371233.74998732      119.9994307      .35455806907963      123.0314871       -4794.54405084

 X0002C               -214326.9874279  428661.35196628      -.0349884325799  .04040038061524      .20402384423182  .20402384423182
                      371233.74998732      119.9994307      -.0201990182796     -150.0019193      -8659.040884837    -8659.0408848

            TERRA                 0.0              0.0       .0349884325799  .04040038061524                  0.0
                                  0.0              0.0      .02019901827956       29.9980807                  0.0

 X0002A               428661.35194512  428661.35196628      .13533283415E-5  .04040038061524      .20402384423203  .20402384423203
                      -4.259164529737       -0.0005693      .04040038059257       89.9980807      -8659.040884837    -8659.0408848

            TERRA                 0.0              0.0      -.1353328341E-5  .04040038061524                  0.0
                                  0.0              0.0      -.0404003805926      -90.0019193                  0.0

 X0001C               16202.836217428  23251.026541293      -.0015716099171  .00219135762451      .60025602981E-3  .60025602981E-3
                       16675.68090769       45.8239465      .00152711836703      135.8225965      -25.47565713738      -25.4756571

            TERRA                 0.0              0.0      .00157160991712  .00219135762451                  0.0
                                  0.0              0.0       -.001527118367      -44.1774035                  0.0

 X0001A               6340.1451827855  23251.026541065      .00421394986125  .07971722650624      903.74542657731  .39717726261546
                      -22369.90823125      -74.1760535       -.079605771326      -86.9698629      205.22323795374   -16856.7265677

            X0002A    428661.35194512  428661.35196628      -.0042139498612  .07971722650624      -903.3482493147
                      -4.259164529737       -0.0005693      .07960577132604       93.0301371      -17061.94980567

 X0001B               -22542.98139996  23251.026541111      -.0710475951869  .07971722650628      903.74542658205  .39717726261685
                      5694.2273239237      165.8239465      .03615349803291      153.0301371      205.22323794356   -16856.7265677

            X0002B    -214334.3645172  428661.35196628      .07104759518688  .07971722650628      -903.3482493194
                      -371229.4908228     -120.0005693      -.0361534980329      -26.9698629      -17061.94980568

 X0001C               16202.836217428  23251.026541293      .06683364532556  .07971722650625      903.74542658728  .39717726261547
                       16675.68090769       45.8239465      .04345227329318       33.0301371      205.22323795125   -16856.7265677

            X0002C    -214326.9874279  428661.35196628      -.0668336453256  .07971722650625      -903.3482493247
                      371233.74998732      119.9994307      -.0434522732932     -146.9698629      -17061.94980568

 LN1A                 6340.1451823695  23251.026541049      .41599251108226  .42817173351677      184.61049121418  .02187638657603
                      -22369.90823135      -74.1760535      .10139656851309       13.6985082      -4974.291631603   -14203.7223729

            VFF2A     6339.9554018302  23250.394769188      .75950033510692  .79407481330925      -184.5886148276
                      -22369.30536306      -74.1760984      .23176291788073       16.9696644      -9229.430741258

 LN1B                 -22542.98139984  23251.026541095       -.120184251352  .42817173351715      184.61049115266  .02187632801418
                      5694.2273243347      165.8239465      -.4109583666383     -106.3014918       -4974.29163162   -14203.7223729

            VFF2B     -22542.36441032  23250.394769234       -.179037593023  .79407481331023      -184.5886148246
                      5694.0902449582      165.8239016      -.7736280433246     -103.0303356      -9229.430741288

 LN1C                 16202.836217724  23251.026541277      -.2958082597302  .42817173351671      184.61049119083  .02187636555574
                       16675.68090738       45.8239465      .30956179812455      133.6985082      -4974.291631652   -14203.7223731

            VFF2C      16202.40900874  23250.394769416      -.5804627420959  .79407481331639      -184.5886148253
                      16675.215118467       45.8239016      .54186512545283      136.9696644      -9229.430741431
     Total network loss  P-loss  by summing injections =   2.691418779045E+05

Output for steady-state phasor switch currents.
      Node-K    Node-M            I-real            I-imag            I-magn          Degrees        Power            Reactive
      LN1A      COMPA         6.33060977E-06   -2.03556773E-05    2.13173689E-05     -72.7243    2.47745809E-01   -6.27860519E-03
      LN1B      COMPB        -2.38278965E-05    4.63700785E-06    2.42748943E-05     168.9876    2.81778002E-01   -1.55747387E-02
      LN1C      COMPC         1.81535762E-05    1.70386207E-05    2.48971268E-05      43.1854    2.89135011E-01    1.33246318E-02
      VFF2A     RSNNHA       -7.59500335E-01   -2.31762918E-01    7.94074813E-01    -163.0303    1.84588615E+02    9.22943074E+03
      VFF2B     RSNNHB        1.79037593E-01    7.73628043E-01    7.94074813E-01      76.9697    1.84588615E+02    9.22943074E+03
      VFF2C     RSNNHC        5.80462742E-01   -5.41865125E-01    7.94074813E-01     -43.0303    1.84588615E+02    9.22943074E+03
      VFF2A     SE2A              Open              Open              Open             Open          Open              Open
      VFF2B     SE2B              Open              Open              Open             Open          Open              Open
      VFF2C     SE2C              Open              Open              Open             Open          Open              Open
      X0001B    XX0003            Open              Open              Open             Open          Open              Open
      X0001C    XX0004            Open              Open              Open             Open          Open              Open
      XX0005    X0002A            Open              Open              Open             Open          Open              Open
      XX0003    X0002B            Open              Open              Open             Open          Open              Open
      XX0004    X0002C            Open              Open              Open             Open          Open              Open
      X0001A    XX0005            Open              Open              Open             Open          Open              Open
      VFUENA    IFUENA        4.18546189E-01    1.42371797E-01    4.42097999E-01      18.7861    8.97071523E+04   -3.05145974E+04
      VFUENB    IFUENB       -8.59755019E-02   -4.33657531E-01    4.42097999E-01    -101.2139    8.97071523E+04   -3.05145974E+04
      VFUENC    IFUENC       -3.32570687E-01    2.91285734E-01    4.42097999E-01     138.7861    8.97071523E+04   -3.05145974E+04
      COMPA     RSNSHA        6.33060977E-06   -2.03556773E-05    2.13173689E-05     -72.7243    2.47745809E-01   -6.27860519E-03
      COMPB     RSNSHB       -2.38278965E-05    4.63700785E-06    2.42748943E-05     168.9876    2.81778002E-01   -1.55747387E-02
      COMPC     RSNSHC        1.81535762E-05    1.70386207E-05    2.48971268E-05      43.1854    2.89135011E-01    1.33246318E-02

Solution at nodes with known voltage.   Nodes that are shorted together by switches are shown as a group of names, with the printed
result applying to the composite group.   The entry "MVA" is  SQRT( P**2 + Q**2 )  in units of power,  while  "P.F."  is the
associated power factor.
              Node                Source  node  voltage             Injected  source  current              Injected  source  power
              name         Rectangular            Polar          Rectangular            Polar            P  and  Q    MVA and P.F.

               VFUENA
              IFUENA       428660.705       428660.705      .41854618915362  .44209799923763      89707.152258826  94755.020016145
                                  0.0              0.0      .14237179662734       18.7861428       -30514.5973572        0.9467272

               VFUENB
              IFUENB     -214330.3525       428660.705      -.0859755019095   .4420979992386      89707.152258619  94755.020016353
                      -371231.0601341     -120.0000000        -.43365753078     -101.2138572      -30514.59735845        0.9467272

               VFUENC
              IFUENC     -214330.3525       428660.705      -.3325706872503  .44209799924174      89707.152258747  94755.020017026
                      371231.06013415      120.0000000      .29128573414328      138.7861428      -30514.59736017        0.9467272

  +++  Node  "COMPC "  has no connected linear branches.  Add (to ground) the conductance  G = 1.00000000E-18  mhos.
  +++  Node  "COMPB "  has no connected linear branches.  Add (to ground) the conductance  G = 1.00000000E-18  mhos.
  +++  Node  "COMPA "  has no connected linear branches.  Add (to ground) the conductance  G = 1.00000000E-18  mhos.
Card of names for time-step loop output.          |  LN1A  LN1B  LN1C  COMPA COMPB COMPC SB1A  SB1B  SB1C  SE2A  SE2B  SE2C  VFF2A
Card of names for time-step loop output.          |  VFF2B VFF2C IFUENAIFUENBIFUENC
Card of names for time-step loop output.          |-5VFF2A VFF2B VFF2B VFF2C VFF2C VFF2A LN1A  LN1B  LN1B  LN1C  LN1C  LN1A
Card of names for time-step loop output.          |-5SB1A  SB1B  SB1B  SB1C  SB1C  SB1A
Blank card ending requests for output variables.  |BLANK OUTPUT

Column headings for the  55   EMTP output variables follow.  These are divided among the 5 possible classes as follows ....
  First  27     output variables are electric-network voltage differences (upper voltage minus lower voltage);
  Next   6     output variables are branch currents (flowing from the upper node to the lower node);
  Next   22     output variables belong to MODELS (with "MODELS" an internally-added upper name of pair).
   Step      Time      LN1A       LN1B       LN1C       COMPA      COMPB      COMPC      SB1A       SB1B       SB1C       SE2A
 

                       SE2B       SE2C       VFF2A      VFF2B      VFF2C      IFUENA     IFUENB     IFUENC     VFF2A      VFF2B
                                                                                                               VFF2B      VFF2C

                       VFF2C      LN1A       LN1B       LN1C       SB1A       SB1B       SB1C       VFUENA     VFUENB     VFUENC
                       VFF2A      LN1B       LN1C       LN1A       SB1B       SB1C       SB1A       IFUENA     IFUENB     IFUENC

                       COMPA      COMPB      COMPC      MODELS     MODELS     MODELS     MODELS     MODELS     MODELS     MODELS
                       RSNSHA     RSNSHB     RSNSHC     ANVOL      LONG       R0F        R1F        X0F        X1F        RDIVX

                       MODELS     MODELS     MODELS     MODELS     MODELS     MODELS     MODELS     MODELS     MODELS     MODELS
                       RINSER     CLOSE1     RPPOS      RPCERO     LPPOS      LPCERO     CPPOS      CPCERO     XP         CR

                       MODELS     MODELS     MODELS     MODELS     MODELS
                       SIMET      ENC1       ENC2       ENC1AS     ENC2AS
 ***      Phasor I(0) =  6.3306098E-06                     Switch  "LN1A  "  to  "COMPA "  closed in the steady-state.
 ***      Phasor I(0) = -2.3827896E-05                     Switch  "LN1B  "  to  "COMPB "  closed in the steady-state.
 ***      Phasor I(0) =  1.8153576E-05                     Switch  "LN1C  "  to  "COMPC "  closed in the steady-state.
 ***      Phasor I(0) = -7.5950034E-01                     Switch  "VFF2A "  to  "RSNNHA"  closed in the steady-state.
 ***      Phasor I(0) =  1.7903759E-01                     Switch  "VFF2B "  to  "RSNNHB"  closed in the steady-state.
 ***      Phasor I(0) =  5.8046274E-01                     Switch  "VFF2C "  to  "RSNNHC"  closed in the steady-state.
 ***      Phasor I(0) =  4.1854619E-01                     Switch  "VFUENA"  to  "IFUENA"  closed in the steady-state.
 ***      Phasor I(0) = -8.5975502E-02                     Switch  "VFUENB"  to  "IFUENB"  closed in the steady-state.
 ***      Phasor I(0) = -3.3257069E-01                     Switch  "VFUENC"  to  "IFUENC"  closed in the steady-state.
 ***      Phasor I(0) =  6.3306098E-06                     Switch  "COMPA "  to  "RSNSHA"  closed in the steady-state.
 ***      Phasor I(0) = -2.3827896E-05                     Switch  "COMPB "  to  "RSNSHB"  closed in the steady-state.
 ***      Phasor I(0) =  1.8153576E-05                     Switch  "COMPC "  to  "RSNSHC"  closed in the steady-state.
      0       0.0  6340.14518 -22542.981 16202.8362 6340.14518 -22542.981 16202.8362 428661.352 -214334.36 -214326.99        0.0
                          0.0        0.0  6339.9554 -22542.364  16202.409 428660.705 -214330.35 -214330.35 28882.3198 -38744.773
                   9862.45361 28883.1266 -38745.818 9862.69104 642995.716 -7.3770891 -642988.34 .418546189  -.0859755 -.33257069
                   .633061E-5 -.23828E-4 .181536E-4        0.0   11.33955   1.459433   1.717057   8.152838   9.592007    .179009
                        .1E-5    .057792    .017505    .205194    .302879   1.201251    .014752    .009162   29273.88   585.4776
                          0.0        0.0        0.0        0.0        1.0
    500     .5E-3  9761.51039 -23156.207 13394.6982 9761.51039 -23156.207 13394.6982 423384.473 -153622.47   -269762.        0.0
                          0.0        0.0 9761.22369 -23155.579 13394.3486  423383.18 -153618.26 -269764.92 32916.8025 -36549.927
                   3633.12489 32917.7173 -36550.905 3633.18778 577006.939 116139.532 -693146.47 .391144717 -.01706772 -.37405029
                   .954664E-5  -.2438E-4 .136383E-4        0.0   11.33955   1.459433   1.717057   8.152838   9.592007    .179009
                        .1E-5    .057792    .017505    .205194    .302879   1.201251    .014752    .009162   29273.88   585.4776
                          0.0        0.0        0.0        0.0        1.0
   1000     .1E-2  12942.5143 -23199.249 10256.7394 12942.5143 -23199.249 10256.7394 407682.469 -89127.876 -318554.59        0.0
                          0.0        0.0   12942.15  -23198.62  10256.471 407680.557 -89123.572 -318556.98 36140.7701 -33455.091
                    -2685.679  36141.763 -33455.988 -2685.7749 496810.345 229426.717 -726237.06  .35408723 .052243171 -.40632393
                   .140701E-4 -.23027E-4 .101971E-4        0.0   11.33955   1.459433   1.717057   8.152838   9.592007    .179009
                        .1E-5    .057792    .017505    .205194    .302879   1.201251    .014752    .009162   29273.88   585.4776
                          0.0        0.0        0.0        0.0        1.0
   1500     .0015  15804.8262 -22671.053 6866.22043 15804.8262 -22671.053 6866.22043 381941.992 -22438.657 -359503.34        0.0
                          0.0        0.0  15804.382  -22670.44 6866.05713 381939.485 -22434.368 -359505.12 38474.8219 -29536.497
                   -8938.3249 38475.8792 -29537.273 -8938.6058 404380.649 337064.683 -741445.33 .308315011 .120273428 -.42858407
                   .159053E-4 -.22982E-4 .727968E-5        0.0   11.33955   1.459433   1.717057   8.152838   9.592007    .179009
                        .1E-5    .057792    .017505    .205194    .302879   1.201251    .014752    .009162   29273.88   585.4776
                          0.0        0.0        0.0        0.0        1.0
   2000      .002  18277.9751 -21584.614 3306.64055 18277.9751 -21584.614 3306.64055 346796.813 44803.0717  -391599.9        0.0
                          0.0        0.0 18277.4683 -21584.034 3306.56827 346793.795 44807.2448 -391601.04 39861.5027 -24890.603
                     -14970.9 39862.5892 -24891.255 -14971.335 301993.741 436402.968 -738396.71 .254947811 .185339078 -.44029366
                   .176354E-4 -.24065E-4 .367942E-5        0.0   11.33955   1.459433   1.717057   8.152838   9.592007    .179009
                        .1E-5    .057792    .017505    .205194    .302879   1.201251    .014752    .009162   29273.88   585.4776
                          0.0        0.0        0.0        0.0        1.0
   2500     .0025  20301.0572 -19966.694 -334.36102 20301.0572 -19966.694 -334.36102 303112.365 110941.612 -414053.96        0.0
                          0.0        0.0 20300.4941 -19966.163 -334.33536 303108.891 110945.554 -414054.45 40266.6568 -19631.827
                   -20634.829 40267.7507 -19632.332 -20635.418 192170.753 524995.577 -717166.33 .195301852   .2458421 -.44115719
                   .213579E-4 -.22696E-4  -.3594E-6        0.0   11.33955   1.459433   1.717057   8.152838   9.592007    .179009
                        .1E-5    .057792    .017505    .205194    .302879   1.201251    .014752    .009162   29273.88   585.4776
                          0.0        0.0        0.0        0.0        1.0
   3000      .003  21824.2589 -17857.127  -3967.129 21824.2589 -17857.127  -3967.129 251964.269 174348.388 -426312.66        0.0
                          0.0        0.0 21823.6568 -17856.655 -3967.0034 251960.441 174352.016 -426312.46 39680.3115 -13889.651
                    -25790.66 39681.3859 -13889.998 -25791.388 77615.8801 600661.047 -678276.93 .130849923 .300292601 -.43116071
                   .219274E-4 -.19841E-4 -.40194E-5        0.0   11.33955   1.459433   1.717057   8.152838   9.592007    .179009
                        .1E-5    .057792    .017505    .205194    .302879   1.201251    .014752    .009162   29273.88   585.4776
                          0.0        0.0        0.0        0.0        1.0
   3500     .0035  22810.0715 -15307.861 -7502.2126 22810.0715 -15307.861 -7502.2126 194611.971 233462.131 -428074.11        0.0
                          0.0        0.0 22809.4515 -15307.457 -7501.9948 194607.888 233465.353 -428073.24 38116.9086 -7805.4624
                   -30311.446 38117.9321  -7805.648 -30312.284  -38850.16 661536.238 -622686.08  .06317315 .347347407 -.41054654
                   .238361E-4 -.16848E-4 -.75386E-5        0.0   11.33955   1.459433   1.717057   8.152838   9.592007    .179009
                        .1E-5    .057792    .017505    .205194    .302879   1.201251    .014752    .009162   29273.88   585.4776
                          0.0        0.0        0.0        0.0        1.0
   4000      .004  23234.2287 -12381.662 -10852.566 23234.2287 -12381.662 -10852.566 132467.697 286827.266 -419294.96        0.0
                          0.0        0.0 23233.5958  -12381.34 -10852.253 132463.443 286829.997 -419293.44 35614.9363 -1529.0877
                   -34085.849 35615.8907 -1529.0955 -34086.795 -154359.57 706122.229 -551762.66 -.00605794 .385850068 -.37982378
                   .234256E-4 -.12714E-4 -.11153E-4        0.0   11.33955   1.459433   1.717057   8.152838   9.592007    .179009
                        .1E-5    .057792    .017505    .205194    .302879   1.201251    .014752    .009162   29273.88   585.4776
                          0.0        0.0        0.0        0.0        1.0
   4500     .0045  23086.2805 -9150.5859 -13935.692 23086.2805 -9150.5859 -13935.692 67061.6135 333129.757 -400191.37        0.0
                          0.0        0.0 23085.6548 -9150.3553   -13935.3 67057.3081 333131.936 -400189.24 32236.0101 4784.94513
                   -37020.955 32236.8664  4785.1065 -37021.973 -266068.14  733321.13 -467252.99 -.07513992 .414851334 -.33974948
                   .248563E-4 -.97281E-5 -.14764E-4        0.0   11.33955   1.459433   1.717057   8.152838   9.592007    .179009
                        .1E-5    .057792    .017505    .205194    .302879   1.201251    .014752    .009162   29273.88   585.4776
                          0.0        0.0        0.0        0.0        1.0
   5000      .005  22369.8686 -5694.1954 -16675.675 22369.8686 -5694.1954 -16675.675 4.26079998 371229.492 -371233.75        0.0
                          0.0        0.0  22369.265 -5694.0592 -16675.209 -.45661E-7  371231.06 -371231.06 28063.3242 10981.1503
                   -39044.474  28064.064 10981.4797 -39045.544 -371225.23 742463.241 -371238.01 -.14237195 .433638348 -.29130698
                   .248797E-4 -.61775E-5 -.16625E-4        0.0   11.33955   1.459433   1.717057   8.152838   9.592007    .179009
                        .1E-5    .057792    .017505    .205194    .302879   1.201251    .014752    .009162   29273.88   585.4776
                          0.0        0.0        0.0        0.0        1.0
   5500     .0055  21102.6408 -2097.5925 -19005.046 21102.6408 -2097.5925 -19005.046 -67053.201 400188.321 -333135.12        0.0
                          0.0        0.0 21102.0747 -2097.5529 -19004.518 -67057.308 400189.244 -333131.94 23199.6276 16906.9647
                   -40106.592 23200.2333 16907.4539 -40107.687 -467241.52 733323.443 -266081.92  -.2060974 .441747511 -.23569385
                   .232747E-4  -.2333E-5 -.21402E-4        0.0   11.33955   1.459433   1.717057   8.152838   9.592007    .179009
                        .1E-5    .057792    .017505    .205194    .302879   1.201251    .014752    .009162   29273.88   585.4776
                          0.0        0.0        0.0        0.0        1.0
   6000      .006  19315.7903 1550.65626 -20866.449 19315.7903 1550.65626 -20866.449 -132459.59 419293.186 -286833.59        0.0
                          0.0        0.0 19315.2781 1550.59728 -20865.876 -132463.44  419293.44   -286830. 17764.6808 22416.4733
                   -40181.154  17765.134 22417.1055  -40182.24 -551752.78  706126.78   -154374. -.26474959 .438978743 -.17427611
                   .215176E-4 .151303E-5 -.20729E-4        0.0   11.33955   1.459433   1.717057   8.152838   9.592007    .179009
                        .1E-5    .057792    .017505    .205194    .302879   1.201251    .014752    .009162   29273.88   585.4776
                          0.0        0.0        0.0        0.0        1.0
   6500     .0065  17053.3253 5160.72418 -22214.051 17053.3253 5160.72418 -22214.051 -194604.38 428073.663 -233469.28        0.0
                          0.0        0.0  17052.874 5160.56677 -22213.441 -194607.89  428073.24 -233465.35 11892.3073 27374.0077
                   -39266.315 11892.6011 27374.7755 -39267.377 -622678.05 661542.944 -38864.895 -.31688162 .425401587 -.10856732
                   .161693E-4 .501049E-5 -.23222E-4        0.0   11.33955   1.459433   1.717057   8.152838   9.592007    .179009
                        .1E-5    .057792    .017505    .205194    .302879   1.201251    .014752    .009162   29273.88   585.4776
                          0.0        0.0        0.0        0.0        1.0
   7000      .007  14370.9519 8643.71844 -23014.669 14370.9519 8643.71844 -23014.669 -251957.37 426313.546 -174356.17        0.0
                          0.0        0.0 14370.5762 8643.46677 -23014.041 -251960.44 426312.457 -174352.02 5727.10942 31657.5073
                   -37384.617 5727.23342 31658.3873 -37385.621 -678270.92 600669.714 77601.2068 -.36121121 .401349279 -.04018559
                   .156551E-4 .982816E-5 -.25395E-4        0.0   11.33955   1.459433   1.717057   8.152838   9.592007    .179009
                        .1E-5    .057792    .017505    .205194    .302879   1.201251    .014752    .009162   29273.88   585.4776
                          0.0        0.0        0.0        0.0        1.0
   7500     .0075  11334.7139 11913.8717 -23248.588 11334.7139 11913.8717 -23248.588 -303106.34 414056.173 -110949.84        0.0
                          0.0        0.0 11334.4225 11913.5328 -23247.955 -303108.89 414054.446 -110945.55 -579.11033 35161.4882
                   -34582.378 -579.15783 35162.4597 -34583.302 -717162.51 525006.009 192156.501 -.39664686 .367414672 .029186749
                   .126205E-4 .123925E-4 -.25457E-4        0.0   11.33955   1.459433   1.717057   8.152838   9.592007    .179009
                        .1E-5    .057792    .017505    .205194    .302879   1.201251    .014752    .009162   29273.88   585.4776
                          0.0        0.0        0.0        0.0        1.0
   8000      .008  8019.38232 14890.6672 -22910.051 8019.38232 14890.6672 -22910.051 -346791.82 391603.362 -44811.551        0.0
                          0.0        0.0 8019.18191 14890.2497  -22909.43  -346793.8  391601.04 -44807.245 -6871.0678 37799.6794
                   -30928.612 -6871.2849 37800.7183 -30929.433 -738395.18 436414.913 301980.265 -.42231526  .32443289 .097838953
                   .864781E-5  .15342E-4 -.23849E-4        0.0   11.33955   1.459433   1.717057   8.152838   9.592007    .179009
                        .1E-5    .057792    .017505    .205194    .302879   1.201251    .014752    .009162   29273.88   585.4776
                          0.0        0.0        0.0        0.0        1.0
   8500     .0085  4506.58499 17500.8039 -22007.389 4506.58499 17500.8039 -22007.389 -381938.13  359507.98 22430.1501        0.0
                          0.0        0.0 4506.48247 17500.3178 -22006.798 -381939.48 359505.117 22434.3679 -12993.835 39507.1159
                   -26513.281 -12994.219 39508.1933 -26513.974 -741446.11  337077.83 404368.278  -.4375856 .273462367  .16408306
                   .487232E-5  .20149E-4 -.22307E-4        0.0   11.33955   1.459433   1.717057   8.152838   9.592007    .179009
                        .1E-5    .057792    .017505    .205194    .302879   1.201251    .014752    .009162   29273.88   585.4776
                          0.0        0.0        0.0        0.0        1.0
   9000      .009   882.82198 19680.0117 -20562.835  882.82198 19680.0117 -20562.835 -407679.85 318560.316 89119.5389        0.0
                          0.0        0.0 882.816327  19679.468 -20562.284 -407680.56 318556.985  89123.572 -18796.652 40241.7521
                     -21445.1  -18797.19 40242.8468 -21445.657 -726240.17 229440.777 496799.394  -.4420805 .215758585 .226286423
                   .931681E-6 .197142E-4 -.21197E-4        0.0   11.33955   1.459433   1.717057   8.152838   9.592007    .179009
                        .1E-5    .057792    .017505    .205194    .302879   1.201251    .014752    .009162   29273.88   585.4776
                          0.0        0.0        0.0        0.0        1.0
   9500     .0095   -2762.677 21374.6327 -18611.956  -2762.677 21374.6327 -18611.956 -423383.15  269768.64 153614.514        0.0
                          0.0        0.0 -2762.5835  21374.045 -18611.461 -423383.18 269764.922 153618.258 -24136.628 39985.5058
                   -15848.877  -24137.31 39986.5888 -15849.279 -693151.79 116154.125 576997.667 -.43568991 .152742096 .282918022
                   -.29999E-5 .237028E-4 -.17829E-4        0.0   11.33955   1.459433   1.717057   8.152838   9.592007    .179009
                        .1E-5    .057792    .017505    .205194    .302879   1.201251    .014752    .009162   29273.88   585.4776
                          0.0        0.0        0.0        0.0        1.0
  10000       .01  -6340.1515 22542.9374 -16202.787 -6340.1515 22542.9374 -16202.787 -428661.35 214334.364 214326.987        0.0
                          0.0        0.0 -6339.9609  22542.321 -16202.359 -428660.71 214330.353 214330.352 -28882.282 38744.6795
                   -9862.3976 -28883.089 38745.7245 -9862.6356 -642995.72 7.37730164 642988.339 -.41857165 .085964422 .332583497
                   -.68666E-5 .223326E-4 -.17432E-4        0.0   11.33955   1.459433   1.717057   8.152838   9.592007    .179009
                        .1E-5    .057792    .017505    .205194    .302879   1.201251    .014752    .009162   29273.88   585.4776
                          0.0        0.0        0.0        0.0        1.0
  10500     .0105  -9761.5074 23156.1602 -13394.654 -9761.5074 23156.1602 -13394.654 -423384.49 153622.465 269762.019        0.0
                          0.0        0.0 -9761.2257 23155.5297 -13394.304 -423383.18 153618.258 269764.922 -32916.755 36549.8335
                   -3633.0781 -32917.668 36550.8144 -3633.1469 -577006.95 -116139.55 693146.505 -.39114639 .017069992 .374058935
                   -.10185E-4 .227917E-4 -.14146E-4        0.0   11.33955   1.459433   1.717057   8.152838   9.592007    .179009
                        .1E-5    .057792    .017505    .205194    .302879   1.201251    .014752    .009162   29273.88   585.4776
                          0.0        0.0        0.0        0.0        1.0
  11000      .011  -12942.503 23199.2011 -10256.698 -12942.503 23199.2011 -10256.698 -407682.49 89127.8726 318554.616        0.0
                          0.0        0.0 -12942.135 23198.5722 -10256.437 -407680.56  89123.572 318556.985 -36140.708 33455.0088
                   2685.69884 -36141.704 33455.8988 2685.80516 -496810.36 -229426.74 726237.105 -.35408996 -.05224456 .406324683
                   -.13699E-4 .242526E-4 -.10462E-4        0.0   11.33955   1.459433   1.717057   8.152838   9.592007    .179009
                        .1E-5    .057792    .017505    .205194    .302879   1.201251    .014752    .009162   29273.88   585.4776
                          0.0        0.0        0.0        0.0        1.0
  11500     .0115   -15804.81 22670.9997   -6866.19  -15804.81 22670.9997   -6866.19 -381941.99 22438.6552 359503.339        0.0
                          0.0        0.0 -15804.367 22670.3881  -6866.021 -381939.48 22434.3679 359505.117 -38474.755 29536.4091
                   8938.34615  -38475.81 29537.1897 8938.62001 -404380.65 -337064.68 741445.333 -.30831457 -.12027277 .428584747
                   -.16471E-4 .223858E-4 -.76215E-5        0.0   11.33955   1.459433   1.717057   8.152838   9.592007    .179009
                        .1E-5    .057792    .017505    .205194    .302879   1.201251    .014752    .009162   29273.88   585.4776
                          0.0        0.0        0.0        0.0        1.0
  12000      .012  -18277.949 21584.5632  -3306.615 -18277.949 21584.5632  -3306.615 -346796.82 -44803.077 391599.899        0.0
                          0.0        0.0 -18277.441 21583.9836  -3306.543  -346793.8 -44807.245  391601.04 -39861.424 24890.5266
                   14970.8977 -39862.512 24891.1782 14971.3338 -301993.75 -436402.98 738396.721 -.25494746 -.18533947 .440291836
                   -.17729E-4 .242439E-4 -.36804E-5        0.0   11.33955   1.459433   1.717057   8.152838   9.592007    .179009
                        .1E-5    .057792    .017505    .205194    .302879   1.201251    .014752    .009162   29273.88   585.4776
                          0.0        0.0        0.0        0.0        1.0
  12500     .0125  -20301.024 19966.6429 334.381315 -20301.024 19966.6429 334.381315 -303112.36 -110941.61 414053.968        0.0
                          0.0        0.0 -20300.463 19966.1093 334.354346 -303108.89 -110945.55 414054.446 -40266.573  19631.755
                   20634.8177 -40267.667 19632.2616 20635.4049 -192170.75 -524995.58 717166.328  -.1953028 -.24584246 .441157645
                   -.20819E-4 .193342E-4 .336382E-6        0.0   11.33955   1.459433   1.717057   8.152838   9.592007    .179009
                        .1E-5    .057792    .017505    .205194    .302879   1.201251    .014752    .009162   29273.88   585.4776
                          0.0        0.0        0.0        0.0        1.0
  13000      .013  -21824.218 17857.0772 3967.14108 -21824.218 17857.0772 3967.14108 -251964.27 -174348.39 426312.655        0.0
                          0.0        0.0  -21823.62 17856.6031 3967.01593 -251960.44 -174352.02 426312.457 -39680.223 13889.5872
                   25790.6356 -39681.295 13889.9361 25791.3593 -77615.878 -600661.04 678276.922 -.13084906 -.30029211   .4311603
                   -.22622E-4  .19421E-4  .42934E-5        0.0   11.33955   1.459433   1.717057   8.152838   9.592007    .179009
                        .1E-5    .057792    .017505    .205194    .302879   1.201251    .014752    .009162   29273.88   585.4776
                          0.0        0.0        0.0        0.0        1.0
  13500     .0135  -22810.029 15307.8105 7502.21857 -22810.029 15307.8105 7502.21857 -194611.98 -233462.13 428074.109        0.0
                          0.0        0.0 -22809.405 15307.4082  7501.9966 -194607.89 -233465.35  428073.24 -38116.813 7805.41164
                   30311.4017 -38117.839 7805.59197 30312.2472 38850.1565 -661536.24 622686.086 -.06317342 -.34734745 .410546807
                   -.23442E-4 .151686E-4 .825152E-5        0.0   11.33955   1.459433   1.717057   8.152838   9.592007    .179009
                        .1E-5    .057792    .017505    .205194    .302879   1.201251    .014752    .009162   29273.88   585.4776
                          0.0        0.0        0.0        0.0        1.0
  14000      .014  -23234.179  12381.615 10852.5642 -23234.179  12381.615 10852.5642 -132467.69 -286827.27 419294.958        0.0
                          0.0        0.0 -23233.547  12381.294 10852.2524 -132463.44   -286830.  419293.44 -35614.841  1529.0416
                   34085.7993 -35615.794 1529.05087 34086.7429 154359.572 -706122.22 551762.651 .006057894  -.3858499 .379823987
                   -.23586E-4  .12477E-4 .110902E-4        0.0   11.33955   1.459433   1.717057   8.152838   9.592007    .179009
                        .1E-5    .057792    .017505    .205194    .302879   1.201251    .014752    .009162   29273.88   585.4776
                          0.0        0.0        0.0        0.0        1.0
  14500     .0145  -23086.226 9150.54335 13935.6826 -23086.226 9150.54335 13935.6826 -67061.617 -333129.76 400191.374        0.0
                          0.0        0.0 -23085.601 9150.31129 13935.2889 -67057.308 -333131.94 400189.244 -32235.912 -4784.9776
                   37020.8895 -32236.769 -4785.1393 37021.9082 266068.142 -733321.13 467252.991 .075139836 -.41485161 .339748698
                   -.24808E-4 .979169E-5 .150623E-4        0.0   11.33955   1.459433   1.717057   8.152838   9.592007    .179009
                        .1E-5    .057792    .017505    .205194    .302879   1.201251    .014752    .009162   29273.88   585.4776
                          0.0        0.0        0.0        0.0        1.0
  % % % % % %   Suspended simulation;  plot data space exhausted;  SPY SPACE is required.   LIMBUF =  840000.
  % % % % % %   Suspended simulation;  plot data space exhausted;  SPY SPACE is required.   LIMBUF =  840000.
  +++  Time-sharing disabled.   Send  user-keyed interrupt to silence alarm.
   Current values.  INDBUF  INDBEG  LIMBUF  MFLUSH  NUMDCD  KCARD1  KCARD2
                    839994      50  840000    1000     230       1     231
Plot timespan now in memory (in sec) = 0.00000000E+00   1.49990000E-02
   ++++  Begin plot-data copy from memory to disk.   MFLUSH, INDBUF, N4, Tbeg,  Tend = 1001  839994       1  -1.00000E+00
1.00000E+19
  15000      .015  -22369.813  5694.1548 16675.6582 -22369.813  5694.1548 16675.6582 -4.2596708 -371229.49  371233.75        0.0
                          0.0        0.0  -22369.21  5694.0174 16675.1927 -.61533E-6 -371231.06  371231.06 -28063.228 -10981.175
                   39044.4029 -28063.968 -10981.503 39045.4711 371225.232 -742463.24 371238.009 .142371696 -.43363818 .291307711
                    -.2479E-4 .597145E-5  .16042E-4        0.0   11.33955   1.459433   1.717057   8.152838   9.592007    .179009
                        .1E-5    .057792    .017505    .205194    .302879   1.201251    .014752    .009162   29273.88   585.4776
                          0.0        0.0        0.0        0.0        1.0
  15500     .0155  -21102.579 2097.55786 19005.0217 -21102.579 2097.55786 19005.0217 67053.2025 -400188.32 333135.119        0.0
                          0.0        0.0 -21102.014 2097.51839 19004.4954 67057.3081 -400189.24 333131.936 -23199.533 -16906.977
                   40106.5098 -23200.137 -16907.464 40107.6012 467241.524 -733323.44 266081.917 .206097928 -.44174715 .235693765
                   -.23627E-4 .208667E-5 .214875E-4        0.0   11.33955   1.459433   1.717057   8.152838   9.592007    .179009
                        .1E-5    .057792    .017505    .205194    .302879   1.201251    .014752    .009162   29273.88   585.4776
                          0.0        0.0        0.0        0.0        1.0
  16000      .016  -19315.731 -1550.6879 20866.4201 -19315.731 -1550.6879 20866.4201 132459.592 -419293.19 286833.596        0.0
                          0.0        0.0 -19315.217 -1550.6278 20865.8447 132463.443 -419293.44 286829.997 -17764.589 -22416.472
                   40181.0614 -17765.044 -22417.108 40182.1515 551752.779 -706126.78 154374.004 .264749207 -.43897891 .174276281
                   -.21277E-4 -.16955E-5 .204425E-4        0.0   11.33955   1.459433   1.717057   8.152838   9.592007    .179009
                        .1E-5    .057792    .017505    .205194    .302879   1.201251    .014752    .009162   29273.88   585.4776
                          0.0        0.0        0.0        0.0        1.0
  16500     .0165  -17053.265 -5160.7506 22214.0151 -17053.265 -5160.7506 22214.0151 194604.386 -428073.66 233469.277        0.0
                          0.0        0.0 -17052.814 -5160.5922 22213.4058 194607.888 -428073.24 233465.353 -11892.222 -27373.998
                   39266.2196 -11892.515 -27374.766 39267.2803  622678.05 -661542.94 38864.8909 .316881659 -.42540145 .108567426
                   -.16293E-4 -.51734E-5 .231937E-4        0.0   11.33955   1.459433   1.717057   8.152838   9.592007    .179009
                        .1E-5    .057792    .017505    .205194    .302879   1.201251    .014752    .009162   29273.88   585.4776
                          0.0        0.0        0.0        0.0        1.0
  17000      .017   -14370.89 -8643.7373 23014.6273  -14370.89 -8643.7373 23014.6273 251957.375 -426313.55 174356.171        0.0
                          0.0        0.0 -14370.514 -8643.4853  23013.999 251960.441 -426312.46 174352.016 -5727.0286 -31657.484
                   37384.5129  -5727.153 -31658.365 37385.5176  678270.92 -600669.72 -77601.204 .361211281 -.40134928 .040185402
                   -.15639E-4 -.98352E-5 .254381E-4        0.0   11.33955   1.459433   1.717057   8.152838   9.592007    .179009
                        .1E-5    .057792    .017505    .205194    .302879   1.201251    .014752    .009162   29273.88   585.4776
                          0.0        0.0        0.0        0.0        1.0
  17500     .0175  -11334.656 -11913.886 23248.5428 -11334.656 -11913.886 23248.5428 303106.337 -414056.17 110949.836        0.0
                          0.0        0.0 -11334.364 -11913.547 23247.9114 303108.891 -414054.45 110945.554 579.182278 -35161.458
                   34582.2757 579.229468 -35162.429 34583.1991  717162.51 -525006.01  -192156.5 .396646752 -.36741453 -.02918626
                   -.12609E-4 -.12534E-4 .251029E-4        0.0   11.33955   1.459433   1.717057   8.152838   9.592007    .179009
                        .1E-5    .057792    .017505    .205194    .302879   1.201251    .014752    .009162   29273.88   585.4776
                          0.0        0.0        0.0        0.0        1.0
  18000      .018  -8019.3254 -14890.675 22909.9994 -8019.3254 -14890.675 22909.9994 346791.815 -391603.36 44811.5485        0.0
                          0.0        0.0 -8019.1248 -14890.256 22909.3809 346793.795 -391601.04 44807.2448 6871.13166 -37799.637
                   30928.5057 6871.34954 -37800.674 30929.3247 738395.178 -436414.91 -301980.27 .422315478 -.32443279 -.09783909
                   -.86958E-5 -.15342E-4 .239648E-4        0.0   11.33955   1.459433   1.717057   8.152838   9.592007    .179009
                        .1E-5    .057792    .017505    .205194    .302879   1.201251    .014752    .009162   29273.88   585.4776
                          0.0        0.0        0.0        0.0        1.0
  18500     .0185  -4506.5326 -17500.805 22007.3378 -4506.5326 -17500.805 22007.3378 381938.128 -359507.98 -22430.148        0.0
                          0.0        0.0 -4506.4278 -17500.318  22006.746 381939.485 -359505.12 -22434.368 12993.8898 -39507.064
                   26513.1738 12994.2726 -39508.143 26513.8705 741446.107 -337077.83 -404368.28 .437585323  -.2734625 -.16408287
                   -.46913E-5 -.20084E-4 .220481E-4        0.0   11.33955   1.459433   1.717057   8.152838   9.592007    .179009
                        .1E-5    .057792    .017505    .205194    .302879   1.201251    .014752    .009162   29273.88   585.4776
                          0.0        0.0        0.0        0.0        1.0
  19000      .019  -882.77357 -19680.007 20562.7809 -882.77357 -19680.007 20562.7809 407679.856 -318560.32  -89119.54        0.0
                          0.0        0.0 -882.76747 -19679.462 20562.2303 407680.557 -318556.98 -89123.572 18796.6948 -40241.693
                   21444.9978 18797.2335 -40242.788 21445.5544 726240.171 -229440.78  -496799.4  .44208044 -.21575861 -.22628647
                   -.87974E-6 -.19749E-4 .212565E-4        0.0   11.33955   1.459433   1.717057   8.152838   9.592007    .179009
                        .1E-5    .057792    .017505    .205194    .302879   1.201251    .014752    .009162   29273.88   585.4776
                          0.0        0.0        0.0        0.0        1.0
  19500     .0195  2762.72131 -21374.622 18611.8993 2762.72131 -21374.622 18611.8993 423383.153 -269768.64 -153614.51        0.0
                          0.0        0.0 2762.62859 -21374.033 18611.4042  423383.18 -269764.92 -153618.26 24136.6618 -39985.437
                   15848.7756 24137.3428 -39986.521  15849.178 693151.793 -116154.13 -576997.67 .435690012 -.15274204 -.28291799
                    .30965E-5 -.23626E-4 .178181E-4        0.0   11.33955   1.459433   1.717057   8.152838   9.592007    .179009
                        .1E-5    .057792    .017505    .205194    .302879   1.201251    .014752    .009162   29273.88   585.4776
                          0.0        0.0        0.0        0.0        1.0
  20000       .02  6340.18917  -22542.92 16202.7314 6340.18917  -22542.92 16202.7314 428661.352 -214334.36 -214326.99        0.0
                          0.0        0.0  6339.9997 -22542.303 16202.3044 428660.705 -214330.35 -214330.35 28882.3028 -38744.608
                   9862.30469 28883.1095 -38745.652  9862.5422 642995.716 -7.3770926 -642988.34 .418571528 -.08596444  -.3325833
                   .687916E-5 -.22345E-4 .173217E-4        0.0   11.33955   1.459433   1.717057   8.152838   9.592007    .179009
                        .1E-5    .057792    .017505    .205194    .302879   1.201251    .014752    .009162   29273.88   585.4776
                          0.0        0.0        0.0        0.0        1.0
  20500     .0205  9761.54021 -23156.137 13394.5969 9761.54021 -23156.137 13394.5969 423384.486 -153622.47 -269762.02        0.0
                          0.0        0.0 9761.25819 -23155.507 13394.2485  423383.18 -153618.26 -269764.92 32916.7649 -36549.755
                   3632.99035 32917.6775 -36550.734  3633.0567 577006.951 116139.553  -693146.5 .391146339 -.01707014 -.37405915
                   .102277E-4 -.22691E-4 .142455E-4        0.0   11.33955   1.459433   1.717057   8.152838   9.592007    .179009
                        .1E-5    .057792    .017505    .205194    .302879   1.201251    .014752    .009162   29273.88   585.4776
                          0.0        0.0        0.0        0.0        1.0
  21000      .021  12942.5283 -23199.173 10256.6443 12942.5283 -23199.173 10256.6443 407682.488 -89127.872 -318554.62        0.0
                          0.0        0.0 12942.1614 -23198.544 10256.3823 407680.557 -89123.572 -318556.98 36140.7054 -33454.926
                   -2685.7791 36141.7013 -33455.817  -2685.884 496810.361 229426.743  -726237.1 .354089862  .05224449 -.40632449
                   .138834E-4  -.2411E-4 .103116E-4        0.0   11.33955   1.459433   1.717057   8.152838   9.592007    .179009
[...]
                        .1E-5    .057792    .017505    .205194    .302879   1.201251    .014752    .009162   29273.88   585.4776
                          0.0        0.0        0.0        0.0        1.0
 113000      .113  -315367.94 -100866.09 416234.022 -315367.94 -100866.09 416234.022 -315367.94 -100866.09 416234.022        0.0
                          0.0        0.0 -327844.02 -86459.122 414303.137 -251960.44 -174352.02 426312.457  -241384.9 -500762.26
                    742147.16 -214501.85 -517100.11 731601.959 -214501.85 -517100.11 731601.959 -65.209673  80.375249 -15.165578
                   -.36857E-3 -.10356E-3 .460267E-3        0.0   11.33955   1.459433   1.717057   8.152838   9.592007    .179009
                        .1E-5    .057792    .017505    .205194    .302879   1.201251    .014752    .009162   29273.88   585.4776
                          0.0        0.0        0.0        0.0        1.0
 113500     .1135  -264048.93 -153754.65 417803.573 -264048.93 -153754.65 417803.573 -264048.93 -153754.65 417803.573        0.0
                          0.0        0.0 -275421.53 -140735.88 416157.408 -194607.89 -233465.35  428073.24 -134685.65 -556893.29
                   691578.937 -110294.28 -571558.22 681852.503 -110294.28 -571558.22 681852.503 -11.818736 20.1504046 -8.3316648
                   -.28015E-3 -.16038E-3 .467002E-3        0.0   11.33955   1.459433   1.717057   8.152838   9.592007    .179009
                        .1E-5    .057792    .017505    .205194    .302879   1.201251    .014752    .009162   29273.88   585.4776
                          0.0        0.0        0.0        0.0        1.0
 114000      .114  -201288.94 -208516.38 409805.327 -201288.94 -208516.38 409805.327 -201288.94 -208516.38 409805.327        0.0
                          0.0        0.0 -210405.58   -198205. 408610.585 -132463.44   -286830.  419293.44  -12200.58 -606815.58
                   619016.165 7227.43602 -618321.71 611094.271 7227.43618 -618321.71 611094.271 42.3690563  -40.47335    -1.8957
                   -.22516E-3 -.22091E-3 .440717E-3        0.0   11.33955   1.459433   1.717057   8.152838   9.592007    .179009
                        .1E-5    .057792    .017505    .205194    .302879   1.201251    .014752    .009162   29273.88   585.4776
                          0.0        0.0        0.0        0.0        1.0
 114500     .1145  -129177.35 -263128.04 392305.389 -129177.35 -263128.04 392305.389 -129177.35 -263128.04 392305.389        0.0
                          0.0        0.0  -135002.6 -256697.09 391699.697 -67057.308 -333131.94 400189.244 121694.493 -648396.79
                   526702.299 133950.695 -655433.43 521482.735 133950.695 -655433.43 521482.735 91.9941784 -95.419248 3.42507096
                   -.14983E-3 -.25359E-3 .403285E-3        0.0   11.33955   1.459433   1.717057   8.152838   9.592007    .179009
                        .1E-5    .057792    .017505    .205194    .302879   1.201251    .014752    .009162   29273.88   585.4776
                          0.0        0.0        0.0        0.0        1.0
 115000      .115  -49597.228  -316077.1 365674.328 -49597.228  -316077.1 365674.328 -49597.228  -316077.1 365674.328        0.0
                          0.0        0.0 -51338.606 -314410.74 365749.338 .127058E-4 -371231.06  371231.06 263072.132 -680160.08
                   417087.943 266479.876 -681751.43 415271.556 266479.876 -681751.43 415271.556 132.345439 -139.39984 7.05439289
                   -.53141E-4  -.3487E-3 .386387E-3        0.0   11.33955   1.459433   1.717057   8.152838   9.592007    .179009
                        .1E-5    .057792    .017505    .205194    .302879   1.201251    .014752    .009162   29273.88   585.4776
                          0.0        0.0        0.0        0.0        1.0
 115500     .1155  34667.4562 -365083.54 330416.082 34667.4562 -365083.54 330416.082 34667.4565 -365083.54 330416.082        0.0
                          0.0        0.0 37502.2458  -368713.9 331211.659 67057.3081 -400189.24 333131.936 406216.151 -699925.56
                   293709.413 399750.995 -695499.62 295748.626 399750.996 -695499.62 295748.626 159.904022  -168.5313 8.62727184
                   .374809E-4 -.40215E-3 .323415E-3        0.0   11.33955   1.459433   1.717057   8.152838   9.592007    .179009
                        .1E-5    .057792    .017505    .205194    .302879   1.201251    .014752    .009162   29273.88   585.4776
                          0.0        0.0        0.0        0.0        1.0
 116000      .116  119610.213 -406708.82 287098.608 119610.213 -406708.82 287098.608 119610.213 -406708.82 287098.608        0.0
                          0.0        0.0 127124.788 -415717.94  288593.15 132463.443 -419293.44 286829.997 542842.723 -704311.08
                   161468.362 526319.034 -693807.43 167488.395 526319.035 -693807.43 167488.394 172.412295 -180.39948 7.98719573
                   .128868E-3 -.42934E-3 .294268E-3        0.0   11.33955   1.459433   1.717057   8.152838   9.592007    .179009
                        .1E-5    .057792    .017505    .205194    .302879   1.201251    .014752    .009162   29273.88   585.4776
                          0.0        0.0        0.0        0.0        1.0
 116500     .1165  201323.974  -437841.5 236517.523 201323.974  -437841.5 236517.523 201323.974  -437841.5 236517.523        0.0
                          0.0        0.0 213247.311 -451880.94 238633.632 194607.888 -428073.24 233465.353 665128.256 -690514.58
                   25386.3211 639165.472 -674359.02 35193.5492 639165.473 -674359.02 35193.5489 168.936005 -174.11507 5.17906907
                   .207763E-3 -.47457E-3 .262663E-3        0.0   11.33955   1.459433   1.717057   8.152838   9.592007    .179009
                        .1E-5    .057792    .017505    .205194    .302879   1.201251    .014752    .009162   29273.88   585.4776
                          0.0        0.0        0.0        0.0        1.0
 117000      .117  276861.036 -456651.67 179790.633 276861.036 -456651.67 179790.633 276861.036 -456651.67 179790.633        0.0
                          0.0        0.0 292531.218 -474927.66 182396.441 251960.441 -426312.46 174352.016 767458.876  -657324.1
                   -110134.78 733512.701  -636442.3 -97070.403 733512.702  -636442.3 -97070.403  150.14336 -150.61654 .473171834
                   .297239E-3 -.52198E-3 .200287E-3        0.0   11.33955   1.459433   1.717057   8.152838   9.592007    .179009
                        .1E-5    .057792    .017505    .205194    .302879   1.201251    .014752    .009162   29273.88   585.4776
                          0.0        0.0        0.0        0.0        1.0
 117500     .1175  343392.648 -461590.96 118198.316 343392.648 -461590.96 118198.316 343392.648 -461590.96 118198.316        0.0
                          0.0        0.0 361837.144 -482959.65 121122.505 303108.891 -414054.45 110945.554 844796.791 -604082.15
                   -240714.64 804983.609 -579789.28 -225194.33  804983.61 -579789.28 -225194.33 118.328927  -112.6828 -5.6461319
                   .381426E-3 -.46742E-3 .134766E-3        0.0   11.33955   1.459433   1.717057   8.152838   9.592007    .179009
                        .1E-5    .057792    .017505    .205194    .302879   1.201251    .014752    .009162   29273.88   585.4776
                          0.0        0.0        0.0        0.0        1.0
 118000      .118  397806.242 -450884.29 53078.0383 397806.242 -450884.29 53078.0383 397806.242 -450884.29 53078.0383        0.0
                          0.0        0.0 417798.812 -473919.72 56120.9018 346793.795 -391601.04 44807.2447 891718.529 -530040.62
                   -361677.91 848690.528 -503962.32  -344728.2 848690.529 -503962.32  -344728.2 76.9443872  -64.38303 -12.561356
                   .412245E-3 -.51557E-3 .578128E-4        0.0   11.33955   1.459433   1.717057   8.152838   9.592007    .179009
                        .1E-5    .057792    .017505    .205194    .302879   1.201251    .014752    .009162   29273.88   585.4776
                          0.0        0.0        0.0        0.0        1.0
 118500     .1185  437782.793 -423714.15 -14068.648 437782.793 -423714.15 -14068.648 437782.793 -423714.15 -14068.648        0.0
                          0.0        0.0 457963.221 -446847.26 -11115.966 381939.485 -359505.12 -22434.368 904810.478 -435731.29
                   -469079.19 861496.942  -409645.5 -451851.44 861496.942  -409645.5 -451851.44 30.1020589 -10.497681 -19.604374
                    .45081E-3 -.44396E-3 -.15201E-4        0.0   11.33955   1.459433   1.717057   8.152838   9.592007    .179009
                        .1E-5    .057792    .017505    .205194    .302879   1.201251    .014752    .009162   29273.88   585.4776
                          0.0        0.0        0.0        0.0        1.0
 119000      .119   462565.83 -381054.36 -81511.466  462565.83 -381054.36 -81511.466  462565.83 -381054.36 -81511.466        0.0
                          0.0        0.0 481546.128 -402695.49 -78850.634 407680.557 -318556.98 -89123.572 884241.616 -323844.85
                   -560396.76 843620.187 -299542.89  -544077.3 843620.187 -299542.89  -544077.3 -17.658143 43.7543762 -26.096233
                   .533801E-3 -.43482E-3 -.85339E-4        0.0   11.33955   1.459433   1.717057   8.152838   9.592007    .179009
                        .1E-5    .057792    .017505    .205194    .302879   1.201251    .014752    .009162   29273.88   585.4776
                          0.0        0.0        0.0        0.0        1.0
 119500     .1195  472140.009 -324681.54 -147458.46 472140.009 -324681.54 -147458.46 472140.009 -324681.54 -147458.46        0.0
                          0.0        0.0 488622.906 -343355.88 -145267.02  423383.18 -269764.92 -153618.26 831978.786 -198088.86
                   -633889.93 796821.553 -177223.08 -619598.47 796821.553 -177223.08 -619598.47 -61.673413 93.0651493 -31.391741
                   .525294E-3 -.35643E-3 -.16515E-3        0.0   11.33955   1.459433   1.717057   8.152838   9.592007    .179009
                        .1E-5    .057792    .017505    .205194    .302879   1.201251    .014752    .009162   29273.88   585.4776
                          0.0        0.0        0.0        0.0        1.0
  % % % % % %   Suspended simulation;  plot data space exhausted;  SPY SPACE is required.   LIMBUF =  840000.
  % % % % % %   Suspended simulation;  plot data space exhausted;  SPY SPACE is required.   LIMBUF =  840000.
  +++  Time-sharing disabled.   Send  user-keyed interrupt to silence alarm.
   Current values.  INDBUF  INDBEG  LIMBUF  MFLUSH  NUMDCD  KCARD1  KCARD2
                    839994      50  840000    1007     230       1     231
Plot timespan now in memory (in sec) = 1.04985997E-01   1.19985000E-01
   ++++  Begin plot-data copy from memory to disk.   MFLUSH, INDBUF, N4, Tbeg,  Tend = 1008  839994       1  -1.00000E+00
1.00000E+19
 120000       .12  466525.447 -256316.29 -210209.16 466525.447 -256316.29 -210209.16 466525.446 -256316.29 -210209.16        0.0
                          0.0        0.0 479415.587 -270789.99  -208625.6 428660.705 -214330.35 -214330.35 750205.576 -62164.384
                   -688041.19 722841.739 -46107.132 -676734.61 722841.739 -46107.132 -676734.61 -97.780001 132.745567 -34.965571
                   .549636E-3 -.28037E-3 -.23629E-3        0.0   11.33955   1.459433   1.717057   8.152838   9.592007    .179009
                        .1E-5    .057792    .017505    .205194    .302879   1.201251    .014752    .009162   29273.88   585.4776
                          0.0        0.0        0.0        0.0        1.0

Extrema of output variables follow.   Order and column positioning are the same as for the preceding time-step loop output.
Variable maxima :  728949.798 715088.498 460737.099 728949.798 715088.498 460737.099 728949.798 715088.498 460737.099        0.0
                          0.0        0.0 785806.068 768874.292 462727.165 428660.705 428660.703 428660.703 .1538571E7 .1141661E7
                   966441.861 .1423312E7 .1085645E7 925853.226 .1423312E7 .1085645E7 925853.225  762.46008 850.005701 89.6793886
                   .849888E-3 .842607E-3 .535071E-3        0.0   11.33955   1.459433   1.717057   8.152838   9.592007    .179009
                        .1E-5    .057792    .017505    .205194    .302879   1.201251    .014752    .009162   29273.88   585.4776
                          0.0        0.0        0.0        0.0        1.0
Times of maxima :     .060408    .066835    .073257    .060408    .066835    .073257    .060408    .066835    .073257        0.0
                          0.0        0.0    .059944    .066376    .073231        0.0    .006667    .113333    .058035    .064468
                      .071605    .058498    .064931    .071143    .058498    .064931    .071143     .05791    .059101    .057896
                      .060405    .066845    .073235        0.0        0.0        0.0        0.0        0.0        0.0        0.0
                          0.0        0.0        0.0        0.0        0.0        0.0        0.0        0.0        0.0        0.0
                          0.0        0.0        0.0        0.0        0.0
Variable minima :  -655019.27  -736390.1 -468457.87 -655019.27  -736390.1 -468457.87 -655019.26  -736390.1 -468457.87        0.0
                          0.0        0.0 -704185.85 -816217.98 -475441.36 -428660.71  -428660.7  -428660.7 -.135915E7 -.105098E7
                   -.103228E7 -.125108E7 -.100763E7 -979650.15 -.125108E7 -.100763E7 -979650.15 -721.24135 -850.22847 -131.66359
                   -.78271E-3 -.85401E-3 -.54261E-3        0.0   11.33955   1.459433   1.717057   8.152838   9.592007    .179009
                        .1E-5    .057792    .017505    .205194    .302879   1.201251    .014752    .009162   29273.88   585.4776
                          0.0        0.0        0.0        0.0        1.0
Times of minima :     .069234    .058013    .063019    .069234    .058013    .063019    .069234    .058013    .063019        0.0
                          0.0        0.0    .069697    .058035    .063483        .01    .016667    .103333    .067788    .074704
                      .061853    .068738    .075168    .061391    .068738    .075168    .061391    .059103    .057908    .058609
                      .070639    .058006    .063012        0.0        0.0        0.0        0.0        0.0        0.0        0.0
                          0.0        0.0        0.0        0.0        0.0        0.0        0.0        0.0        0.0        0.0
                          0.0        0.0        0.0        0.0        0.0

Blank card terminating all plot cards.            |BLANK PLOT

Memory storage figures for the preceding, now-completed data case.  -------------------------------  Present   Program
A value of  "-9999"  indicates that no figure is available.         28-Feb-22  19:41:01              figure     limit  (name)
     Size List 1.   Number of electric network nodes.                                                   37      6000  (LBUS)
     Size List 2.   Number of electric network branches.                                                39     10000  (LBRNCH)
     Size List 3.   Number of data values in R, L, C tables.                                            45    192000  (LDATA)
     Size List 4.   Number of electric network sources.                                                  3       900  (LEXCT)
     Size List 5.   Storage for [Y] and triangularized [Y].   No. times =    3     Factors =    66     189    420000  (LYMAT)
     Size List 6.   Number of entries in switch table.                  No. flops = 18                  21      1200  (LSWTCH)
     Size List 7.   Number of distinct ALPHANUMERIC data names plus program SPY variables.              25     15000  (LSIZE7)
     Size List 8.   History points of distributed lines.                                               157    120000  (LPAST)
     Size List 9.   Number of nonlinear elements.                                                        0      2250  (LNONL)
     Size List 10.  Points of nonlinear characteristics.                                                 0      3800  (LCHAR)
     Size List 11.  Number of Type-59 S.M. outputs.                                                      0       720  (LSMOUT)
     Size List 12.  Total number of EMTP output variables.                                              55      2000  (LSIZ12)
     Size List 13.  Working space for batch/SPY plotting.                                            -9999     72800  (LSIZ13)
     Size List 14.  S.M./U.M. connections to TACS.                                                   -9999       510  (LBSTAC)
     Size List 15.  Character storage in bytes for MODELS.                                            3300     90000  (LCTACS)
     Size List 16.  Total number of Type-59 S.M. masses.                                                 0       800  (LIMASS)
     Size List 17.  Number of Type-59 Synchronous machines.                                              0        90  (LSYN)
     Size List 18.  Branch and switch power/energy outputs.                                              0       254  (MAXPE)
     Size List 19.  Total floating-point TACS table space.                                              23    120000  (LTACST)
     Size List 20.  Non-copied recursive convolution data.                                               0    100000  (LFSEM)
     Size List 21.  Total modal/phase [T] matrix storage.                                                9      3000  (LFD)
     Size List 22.  Total recursive convolution history.                                                 0     15000  (LHIST)
     Size List 23.  Giant vectors for renumbering, phasors;  also extrema accumulation.                  93    192000  (LSIZ23)
     Size List 24.  Peak phases of compensation for data.                                                0       120  (LCOMP)
     Size List 25.  Total table space for all U.M usage.                                             -9999     45000  (LSPCUM)
     Size List 26.  Square of max number of coupled phases.                                              9    260000  (LSIZ26)
     Size List 27.  Maximum number of MODELS top variables.                                             44       600  (LSIZ27)
     Size List 28.  MODELS.  Total work space is divided into INTEGER and REAL.  1st, REAL:           1780    210000  (LRTACS)
                             Second  and last,  statistics for INTEGER work space.                    6838         0  (LITACS)
     Size List 29.  RAM disk used by "TAPSAV" table saving (limit is "LABCOM" size LTLABL).          -9999       600  (LSIZ29)
     Size List 30.  Taku Noda frequency-dependent circuits.                                              0        19  (LSIZ30)
Timing figures characterizing central processor (CP) solution speed.  ----------------------------   CP sec  Wait sec  Real sec
     Data input time (through blank card ending branches) ....                                       0.031     0.000     0.031
     Node renumbering and phasor solution  ....                                                      0.016     0.000     0.016
     After phasor solution, but before time-step loop  ....                                          0.000     0.000     0.000
     Integration of equations (time-step loop)  ....                                                 1.078     0.000     1.078
     Plotting or STATISTICS termination overlays ....                                                0.000     0.000     0.000
                                                                                                    ---------------------------
                                                                                          Totals      1.125     0.000     1.125

