   ---   236   cards of disk file read into card cache cells  1   onward.
 Comment card is ignored.      |C   LBUS  LBRNCH   LDATA   LEXCT   LYMAT  LSWTCH
 Limit CIDEAL cards =   200    |CARDS        200 { Limit of CIDEAL will be 2 mor
 1st card (Lists  1-10).       |    6000   10000  192000     900  420000    120
 Comment card is ignored.      |C LSMOUT  LSIZ12  LSIZ13  LBSTAC  LCTACS  LIMASS
 2nd card (Lists 11-20).       |     720    2000   72800     510   90000     80
 Comment card is ignored.      |C    LFD   LHIST  LSIZ23   NCOMP  LSPCUM  LSIZ26
 3rd card (Lists 21-30).       |    3000   15000  192000     120   45000  26000
 4th card (Lists 31-32).       |     200     300     { Optional card for Lists
 Comment card is ignored.      |C  LWORK  LMARTI
 Supplemental offsets.         |  840000     742
 <===> Done with  "/"-card sorting by data class.    Remember that the source file appears different from interpreted input data.
Alternative Transients Program (ATP),  GNU Linux or DOS.  All rights reserved by Can/Am user group of Portland, Oregon, USA.
 Date (dd-mth-yy) and time of day (hh.mm.ss) = 28-Feb-22  19:24:48   Name of disk plot file is  draw6.3\bernal\energizacion1525.pl4
Consult the 860-page ATP Rule Book of the Can/Am EMTP User Group in Portland,  Oregon, USA.  Source code date is 12 August 2008.
Total size of LABCOM tables = 10913436 INTEGER words.  31 VARDIM  List Sizes follow:  6002  10K  192K  900  420K  1200  15K
  120K  2250  3800  720  2K  72800  510  90K  800  90  254  120K  100K  3K  15K  192K  120  45K  260K  600  210K  1100  60  200
--------------------------------------------------+--------------------------------------------------------------------------------
Descriptive interpretation of input data cards.   |  Input data card images are shown below, all 80 columns, character by character
                                                  0         1         2         3         4         5         6         7         8
                                                  012345678901234567890123456789012345678901234567890123456789012345678901234567890
--------------------------------------------------+--------------------------------------------------------------------------------
Comment card.   NUMDCD = 1.                       |C data:C:\ATP\ATPDRAW6.3\BERNAL\ENERGIZACION1525.ATP
Marker card preceding new EMTP data case.         |BEGIN NEW DATA CASE
Comment card.   NUMDCD = 3.                       |C --------------------------------------------------------
Comment card.   NUMDCD = 4.                       |C Generated by ATPDRAW  febrero, lunes 28, 2022
Comment card.   NUMDCD = 5.                       |C A Bonneville Power Administration program
Comment card.   NUMDCD = 6.                       |C by H. K. Høidalen at SEfAS/NTNU - NORWAY 1994-2016
Comment card.   NUMDCD = 7.                       |C --------------------------------------------------------
Comment card.   NUMDCD = 8.                       |C  dT  >< Tmax >< Xopt >< Copt ><Epsiln>
Misc. data.     1.000E-06   1.200E-01   5.000E+01 |   1.E-6     .12     50.
Misc. data.    500    1  0  1  1  0  0  0  0  0   |     500       1       0       1       1       0       0       0       0
  ///  Warning.  Nonzero XOPT or COPT differs from the power frequency of  6.00000000E+01  Hz.   Did the user really want this?
No TACS data,  but MODELS data begins (next).     |MODELS
      Another ordinary MODELS data card.          |OUTPUT
      Another ordinary MODELS data card.          |  AnVol
      Another ordinary MODELS data card.          |  LONG
      Another ordinary MODELS data card.          |  R0F
      Another ordinary MODELS data card.          |  R1F
      Another ordinary MODELS data card.          |  X0F
      Another ordinary MODELS data card.          |  X1F
      Another ordinary MODELS data card.          |  RDIVX
      Another ordinary MODELS data card.          |  RINSER
      Another ordinary MODELS data card.          |  CLOSE1
      Another ordinary MODELS data card.          |  RPpos
      Another ordinary MODELS data card.          |  RPcero
      Another ordinary MODELS data card.          |  LPpos
      Another ordinary MODELS data card.          |  LPcero
      Another ordinary MODELS data card.          |  CPpos
      Another ordinary MODELS data card.          |  CPcero
      Another ordinary MODELS data card.          |  Xp
      Another ordinary MODELS data card.          |  CR
      Another ordinary MODELS data card.          |  SIMET
      Another ordinary MODELS data card.          |  ENC1
      Another ordinary MODELS data card.          |  ENC2
      Another ordinary MODELS data card.          |  ENC1AS
      Another ordinary MODELS data card.          |  ENC2AS
      Another ordinary MODELS data card.          |MODEL DEFAULT
      Another ordinary MODELS data card.          |DATA AnVol,LONG,R0F,R1F,X0F,X1F,RDIVX,RINSER,CLOSE1,RPpos,RPcero,LPpos,LPcero
      Another ordinary MODELS data card.          |OUTPUT o1,o2,o3, o4, o5, o6, o7, o8, o9, o10, o11, o12, o13
      Another ordinary MODELS data card.          |VAR o1,o2,o3, o4, o5, o6, o7, o8, o9, o10, o11, o12, o13
      Another ordinary MODELS data card.          |INIT
      Another ordinary MODELS data card.          |  o1:=AnVol
      Another ordinary MODELS data card.          |  o2:=LONG
      Another ordinary MODELS data card.          |  o3:=R0F
      Another ordinary MODELS data card.          |  o4:=R1F
      Another ordinary MODELS data card.          |  o5:=X0F
      Another ordinary MODELS data card.          |  O6:=X1F
      Another ordinary MODELS data card.          |  o7:=RDIVX
      Another ordinary MODELS data card.          |  o8:=RINSER
      Another ordinary MODELS data card.          |  o9:=CLOSE1
      Another ordinary MODELS data card.          |  o10:=RPpos
      Another ordinary MODELS data card.          |  o11:=RPcero
      Another ordinary MODELS data card.          |  o12:=LPpos
      Another ordinary MODELS data card.          |  o13:=LPcero
      Another ordinary MODELS data card.          |
      Another ordinary MODELS data card.          |ENDINIT
      Another ordinary MODELS data card.          |EXEC
      Another ordinary MODELS data card.          |ENDEXEC
      Another ordinary MODELS data card.          |ENDMODEL
      Another ordinary MODELS data card.          |MODEL DEFAULT1
      Another ordinary MODELS data card.          |DATA CPpos,CPcero,Xp,CR,SIMET,ENC1,ENC2,ENC1AS,ENC2AS
      Another ordinary MODELS data card.          |OUTPUT o1, o2, o3, o4, o5, o6, o7, o8, o9
      Another ordinary MODELS data card.          |VAR o1, o2, o3, o4, o5, o6, o7, o8, o9
      Another ordinary MODELS data card.          |INIT
      Another ordinary MODELS data card.          |  o1:=CPpos
      Another ordinary MODELS data card.          |  o2:=CPcero
      Another ordinary MODELS data card.          |  o3:=Xp
      Another ordinary MODELS data card.          |  o4:=CR
      Another ordinary MODELS data card.          |  o5:=SIMET
      Another ordinary MODELS data card.          |  o6:=ENC1
      Another ordinary MODELS data card.          |  o7:=ENC2
      Another ordinary MODELS data card.          |  o8:=ENC1AS
      Another ordinary MODELS data card.          |  o9:=ENC2AS
      Another ordinary MODELS data card.          |
      Another ordinary MODELS data card.          |ENDINIT
      Another ordinary MODELS data card.          |EXEC
      Another ordinary MODELS data card.          |ENDEXEC
      Another ordinary MODELS data card.          |ENDMODEL
      Another ordinary MODELS data card.          |USE DEFAULT AS DEFAULT
      Another ordinary MODELS data card.          |DATA
      Another ordinary MODELS data card.          |  AnVol:=      0.0
      Another ordinary MODELS data card.          |  LONG:= 12.74046
      Another ordinary MODELS data card.          |  R0F:= 2.255268
      Another ordinary MODELS data card.          |  R1F:= 2.222092
      Another ordinary MODELS data card.          |  X0F:=  10.1857
      Another ordinary MODELS data card.          |  X1F:= 10.03587
      Another ordinary MODELS data card.          |  RDIVX:= 0.221415
      Another ordinary MODELS data card.          |  RINSER:=     440.
      Another ordinary MODELS data card.          |  CLOSE1:= 0.044609
      Another ordinary MODELS data card.          |  RPpos:= 0.024103
      Another ordinary MODELS data card.          |  RPcero:= 0.190463
      Another ordinary MODELS data card.          |  LPpos:= 0.423137
      Another ordinary MODELS data card.          |  LPcero:= 1.278382
      Another ordinary MODELS data card.          |OUTPUT
      Another ordinary MODELS data card.          |  AnVol:=o1
      Another ordinary MODELS data card.          |  LONG:=o2
      Another ordinary MODELS data card.          |  R0F:=o3
      Another ordinary MODELS data card.          |  R1F:=o4
      Another ordinary MODELS data card.          |  X0F:=o5
      Another ordinary MODELS data card.          |  X1F:=o6
      Another ordinary MODELS data card.          |  RDIVX:=o7
      Another ordinary MODELS data card.          |  RINSER:=o8
      Another ordinary MODELS data card.          |  CLOSE1:=o9
      Another ordinary MODELS data card.          |  RPpos:=o10
      Another ordinary MODELS data card.          |  RPcero:=o11
      Another ordinary MODELS data card.          |  LPpos:=o12
      Another ordinary MODELS data card.          |  LPcero:=o13
      Another ordinary MODELS data card.          |ENDUSE
      Another ordinary MODELS data card.          |USE DEFAULT1 AS DEF
      Another ordinary MODELS data card.          |DATA
      Another ordinary MODELS data card.          |  CPpos:=  0.01162
      Another ordinary MODELS data card.          |  CPcero:= 0.007711
      Another ordinary MODELS data card.          |  Xp:= 33077.85
      Another ordinary MODELS data card.          |  CR:= 661.5571
      Another ordinary MODELS data card.          |  SIMET:=       1.
      Another ordinary MODELS data card.          |  ENC1:=       1.
      Another ordinary MODELS data card.          |  ENC2:=       1.
      Another ordinary MODELS data card.          |  ENC1AS:=      0.0
      Another ordinary MODELS data card.          |  ENC2AS:=      0.0
      Another ordinary MODELS data card.          |OUTPUT
      Another ordinary MODELS data card.          |  CPpos:=o1
      Another ordinary MODELS data card.          |  CPcero:=o2
      Another ordinary MODELS data card.          |  Xp:=o3
      Another ordinary MODELS data card.          |  CR:=o4
      Another ordinary MODELS data card.          |  SIMET:=o5
      Another ordinary MODELS data card.          |  ENC1:=o6
      Another ordinary MODELS data card.          |  ENC2:=o7
      Another ordinary MODELS data card.          |  ENC1AS:=o8
      Another ordinary MODELS data card.          |  ENC2AS:=o9
      Another ordinary MODELS data card.          |ENDUSE
      Another ordinary MODELS data card.          |RECORD
      Another ordinary MODELS data card.          |  DEFAULT.o1 AS AnVOL
      Another ordinary MODELS data card.          |  DEFAULT.o2 AS LONG
      Another ordinary MODELS data card.          |  DEFAULT.o3 AS R0F
      Another ordinary MODELS data card.          |  DEFAULT.o4 AS R1F
      Another ordinary MODELS data card.          |  DEFAULT.o5 AS X0F
      Another ordinary MODELS data card.          |  DEFAULT.o6 AS X1F
      Another ordinary MODELS data card.          |  DEFAULT.o7 AS RDIVX
      Another ordinary MODELS data card.          |  DEFAULT.o8 AS RINSER
      Another ordinary MODELS data card.          |  DEFAULT.o9 AS CLOSE1
      Another ordinary MODELS data card.          |  DEFAULT.o10 AS RPpos
      Another ordinary MODELS data card.          |  DEFAULT.o11 AS RPcero
      Another ordinary MODELS data card.          |  DEFAULT.o12 AS LPpos
      Another ordinary MODELS data card.          |  DEFAULT.o13 AS LPcero
      Another ordinary MODELS data card.          |  DEF.o1 AS CPpos
      Another ordinary MODELS data card.          |  DEF.o2 AS CPcero
      Another ordinary MODELS data card.          |  DEF.o3 AS Xp
      Another ordinary MODELS data card.          |  DEF.o4 AS CR
      Another ordinary MODELS data card.          |  DEF.o5 AS SIMET
      Another ordinary MODELS data card.          |  DEF.o6 AS ENC1
      Another ordinary MODELS data card.          |  DEF.o7 AS ENC2
      Another ordinary MODELS data card.          |  DEF.o8 AS ENC1AS
      Another ordinary MODELS data card.          |  DEF.o9 AS ENC2AS
Termination of data for Laurent Dube`s MODELS.    |ENDMODELS
Comment card.   NUMDCD = 153.                     |C        1         2         3         4         5         6         7         8
Comment card.   NUMDCD = 154.                     |C 345678901234567890123456789012345678901234567890123456789012345678901234567890
Optional blank card follows last of MODELS data.  |BLANK MODELS
Comment card.   NUMDCD = 156.                     |C < n1 >< n2 ><ref1><ref2>< R  >< L  >< C  >
Comment card.   NUMDCD = 157.                     |C < n1 >< n2 ><ref1><ref2>< R  >< A  >< B  ><Leng><><>0
1st of coupled R-L.   2.25530E+00  3.24221E-02    |51IFUENASB1A              2.255310.185704166
2nd coil. 2.222E+00 3.195E-02 0.000E+00 0.000E+00 |52IFUENBSB1B              2.222110.035867408
Zca, Zcc= 1.107E-02 1.590E-04 2.233E+00 3.210E-02 |53IFUENCSB1C
Series R-L-C.   1.000E+09  0.000E+00  0.000E+00   |  SB1A                      1.E9                                               0
Series R-L-C.   1.000E+09  0.000E+00  0.000E+00   |  SB1B                      1.E9                                               0
Series R-L-C.   1.000E+09  0.000E+00  0.000E+00   |  SB1C                      1.E9                                               0
Series R-L-C.   3.308E+02  5.265E+01  0.000E+00   |  RSNSHA                  330.7816539.                                         0
Series R-L-C.   3.308E+02  5.265E+01  0.000E+00   |  RSNSHB                  330.7816539.                                         0
Series R-L-C.   3.308E+02  5.265E+01  0.000E+00   |  RSNSHC                  330.7816539.                                         0
Series R-L-C.   3.308E+02  5.265E+01  0.000E+00   |  RSNNHA                  330.7816539.                                         0
Series R-L-C.   3.308E+02  5.265E+01  0.000E+00   |  RSNNHB                  330.7816539.                                         0
Series R-L-C.   3.308E+02  5.265E+01  0.000E+00   |  RSNNHC                  330.7816539.                                         0
Series R-L-C.   1.000E+09  0.000E+00  0.000E+00   |  SE2A                      1.E9                                               0
Series R-L-C.   1.000E+09  0.000E+00  0.000E+00   |  SE2B                      1.E9                                               0
Series R-L-C.   1.000E+09  0.000E+00  0.000E+00   |  SE2C                      1.E9                                               0
Series R-L-C.   2.500E+02  0.000E+00  3.000E-10   |  X0001B                    250.       .0003                                   0
Series R-L-C.   2.500E+02  0.000E+00  3.000E-10   |  X0002B                    250.       .0003                                   0
Series R-L-C.   1.000E-06  0.000E+00  0.000E+00   |  X0001ALN1A               1.E-6                                               0
Series R-L-C.   1.000E-06  0.000E+00  0.000E+00   |  SB1A  X0002A             1.E-6                                               0
Series R-L-C.   1.000E-06  0.000E+00  0.000E+00   |  X0001BLN1B               1.E-6                                               0
Series R-L-C.   1.000E-06  0.000E+00  0.000E+00   |  SB1B  X0002B             1.E-6                                               0
Series R-L-C.   1.000E-06  0.000E+00  0.000E+00   |  X0001CLN1C               1.E-6                                               0
Series R-L-C.   1.000E-06  0.000E+00  0.000E+00   |  SB1C  X0002C             1.E-6                                               0
Series R-L-C.   4.400E+02  0.000E+00  0.000E+00   |  XX0005X0002A              440.                                               0
Series R-L-C.   4.400E+02  0.000E+00  0.000E+00   |  XX0003X0002B              440.                                               0
Series R-L-C.   4.400E+02  0.000E+00  0.000E+00   |  XX0004X0002C              440.                                               0
Series R-L-C.   2.500E+02  0.000E+00  3.000E-10   |  X0001A                    250.       .0003                                   0
Series R-L-C.   1.000E+06  0.000E+00  0.000E+00   |  X0001AX0002A              1.E6                                               0
Series R-L-C.   1.000E+06  0.000E+00  0.000E+00   |  X0001BX0002B              1.E6                                               0
Series R-L-C.   1.000E+06  0.000E+00  0.000E+00   |  X0001CX0002C              1.E6                                               0
Series R-L-C.   2.500E+02  0.000E+00  3.000E-10   |  X0002C                    250.       .0003                                   0
Series R-L-C.   2.500E+02  0.000E+00  3.000E-10   |  X0002A                    250.       .0003                                   0
Series R-L-C.   2.500E+02  0.000E+00  3.000E-10   |  X0001C                    250.       .0003                                   0
Series R-L-C.   1.250E+02  0.000E+00  6.000E-10   |  X0001AX0002A              125.       .0006                                   0
Series R-L-C.   1.250E+02  0.000E+00  6.000E-10   |  X0001BX0002B              125.       .0006                                   0
Series R-L-C.   1.250E+02  0.000E+00  6.000E-10   |  X0001CX0002C              125.       .0006                                   0
 1.905E-01 1.278E+00 7.710E-03 7.265E+02 7.136E-05|-1LN1A  VFF2A             .190461.2784.00771 12.74 0 0                         0
 2.410E-02 4.231E-01 1.162E-02 3.405E+02 5.040E-05|-2LN1B  VFF2B              .0241.42314.01162 12.74 0 0                         0
3rd or later transposed distributed phase.        |-3LN1C  VFF2C                                                                  0
Blank card ending branches.  IBR, NTOT = 39  31   |BLANK BRANCH
Comment card.   NUMDCD = 198.                     |C < n 1>< n 2>< Tclose ><Top/Tde ><   Ie   ><Vf/CLOP ><  type  >
Switch.  -1.00E+00  1.00E+01  0.00E+00  0.00E+00  |  LN1A  COMPA        -1.       10.                                             0
Switch.  -1.00E+00  1.00E+01  0.00E+00  0.00E+00  |  LN1B  COMPB        -1.       10.                                             0
Switch.  -1.00E+00  1.00E+01  0.00E+00  0.00E+00  |  LN1C  COMPC        -1.       10.                                             0
Switch.  -1.00E+00  1.00E+01  0.00E+00  0.00E+00  |  VFF2A RSNNHA       -1.       10.                                             0
Switch.  -1.00E+00  1.00E+01  0.00E+00  0.00E+00  |  VFF2B RSNNHB       -1.       10.                                             0
Switch.  -1.00E+00  1.00E+01  0.00E+00  0.00E+00  |  VFF2C RSNNHC       -1.       10.                                             0
Switch.   2.00E+00 -1.00E+00  0.00E+00  0.00E+00  |  VFF2A SE2A          2.       -1.                                             0
Switch.   2.00E+00 -1.00E+00  0.00E+00  0.00E+00  |  VFF2B SE2B          2.       -1.                                             0
Switch.   2.00E+00 -1.00E+00  0.00E+00  0.00E+00  |  VFF2C SE2C          2.       -1.                                             0
Switch.   4.46E-02  1.00E+03  0.00E+00  0.00E+00  |  X0001BXX0003.044608835      1.E3                                             0
Switch.   4.46E-02  1.00E+03  0.00E+00  0.00E+00  |  X0001CXX0004.044608835      1.E3                                             0
Switch.   5.21E-02  1.00E+03  0.00E+00  0.00E+00  |  XX0005X0002A.052108835      1.E3                                             0
Switch.   5.21E-02  1.00E+03  0.00E+00  0.00E+00  |  XX0003X0002B.052108835      1.E3                                             0
Switch.   5.21E-02  1.00E+03  0.00E+00  0.00E+00  |  XX0004X0002C.052108835      1.E3                                             0
Switch.   4.46E-02  1.00E+03  0.00E+00  0.00E+00  |  X0001AXX0005.044608835      1.E3                                             0
Permanently-closed switch used for metering.      |  VFUENAIFUENA                                        MEASURING                1
Permanently-closed switch used for metering.      |  VFUENBIFUENB                                        MEASURING                1
Permanently-closed switch used for metering.      |  VFUENCIFUENC                                        MEASURING                1
Permanently-closed switch used for metering.      |  COMPA RSNSHA                                        MEASURING                1
Permanently-closed switch used for metering.      |  COMPB RSNSHB                                        MEASURING                1
Permanently-closed switch used for metering.      |  COMPC RSNSHC                                        MEASURING                1
Blank card ending switches.   KSWTCH = 21.        |BLANK SWITCH
Comment card.   NUMDCD = 221.                     |C < n 1><>< Ampl.  >< Freq.  ><Phase/T0><   A1   ><   T1   >< TSTART >< TSTOP  >
Source.   4.29E+05  5.00E+01  0.00E+00 -1.00E+00  |14VFUENA  428660.705       50.                                     -1.      100.
Source.   4.29E+05  5.00E+01 -1.20E+02 -1.00E+00  |14VFUENB  428660.705       50.     -120.                           -1.      100.
Source.   4.29E+05  5.00E+01 -2.40E+02 -1.00E+00  |14VFUENC  428660.705       50.     -240.                           -1.      100.
Blank card ends electric sources.  KCONST = 3     |BLANK SOURCE
Pi-equivalent branches of distributed circuits are added to the table of List Size 3 between indices  40   and  45.

Sinusoidal steady-state phasor solution, branch by branch.   All flows are away from a bus,  and the real part,  magnitude,  or  "P"
is printed above the imaginary part,  the angle,  or  "Q".   The first solution frequency  =  5.00000000E+01  Hertz.
  Bus K                        Phasor  node  voltage              Phasor  branch  current               Power flow       Power loss
             Bus M         Rectangular            Polar          Rectangular            Polar            P  and  Q        P  and  Q

 IFUENA                    428660.705       428660.705      .43099776685655   .4462124234842      92375.903297076  .22121619563067
                                  0.0              0.0      .11552684465663       15.0051275      -24760.90933847        0.9990983

            SB1A      428660.90669196  428660.90671645      -.4309977668565   .4462124234842      -92375.68208088
                      -4.582148642828       -0.0006125      -.1155268446566     -164.9948725      24761.908436802

 IFUENB                  -214330.3525       428660.705      -.1154497011389  .44621242348025      92375.903296452  .22121619562675
                      -371231.0601341     -120.0000000      -.4310184373957     -104.9948725      -24760.90933753        0.9990983

            SB1B      -214334.4216031  428660.90671645      .11544970113893  .44621242348025      -92375.68208026
                      -371228.9437302     -120.0006125      .43101843739572       75.0051275      24761.908435859

 IFUENC                  -214330.3525       428660.705      -.3155480657116  .44621242348196      92375.903297142  .22121619562865
                      371231.06013415      120.0000000      .31549159274899      135.0051275      -24760.90933636        0.9990983

            SB1C      -214326.4850889  428660.90671645      .31554806571162  .44621242348196      -92375.68208095
                      371233.52587883      119.9993875       -.315491592749      -44.9948725      24761.908434697

 SB1A                 428660.90669196  428660.90671645      .42866090669E-3  .42866090672E-3      91.875086473484  91.875086473484
                      -4.582148642828       -0.0006125      -.4582148643E-8       -0.0006125      -.932795033E-19        0.0000000

            TERRA                 0.0              0.0      -.4286609067E-3  .42866090672E-3                  0.0
                                  0.0              0.0      .45821486428E-8      179.9993875                  0.0

 SB1B                 -214334.4216031  428660.90671645      -.2143344216E-3  .42866090672E-3      91.875086473483  91.875086473483
                      -371228.9437302     -120.0006125      -.3712289437E-3     -120.0006125      .3747002708E-15        0.0000000

            TERRA                 0.0              0.0       .2143344216E-3  .42866090672E-3                  0.0
                                  0.0              0.0      .37122894373E-3       59.9993875                  0.0

 SB1C                 -214326.4850889  428660.90671645      -.2143264851E-3  .42866090672E-3      91.875086473483  91.875086473483
                      371233.52587883      119.9993875      .37123352588E-3      119.9993875      -.780625564E-15        0.0000000

            TERRA                 0.0              0.0      .21432648509E-3  .42866090672E-3                  0.0
                                  0.0              0.0      -.3712335259E-3      -60.0006125                  0.0

 RSNSHA               -821.9663544461  5882.2087735783      .35103296348066  .35558574790728      20.912114056344  20.912114056344
                      5824.4958037688       98.0326687      .05671933237235        9.1784315      1045.6057028172     1045.6057028

            TERRA                 0.0              0.0      -.3510329634807  .35558574790728                  0.0
                                  0.0              0.0      -.0567193323723     -170.8215685                  0.0

 RSNSHB               5455.1445075229  5882.2087735783      -.1263960990202  .35558574790728      20.912114056343  20.912114056343
                      -2200.404157877      -21.9673313      -.3323631301262     -110.8215685      1045.6057028172     1045.6057028

            TERRA                 0.0              0.0      .12639609902015  .35558574790728                  0.0
                                  0.0              0.0      .33236313012617       69.1784315                  0.0

 RSNSHC               -4633.178153077  5882.2087735791      -.2246368644605  .35558574790733      20.912114056349  20.912114056349
                      -3624.091645892     -141.9673313      .27564379775382      129.1784315      1045.6057028175     1045.6057028

            TERRA                 0.0              0.0      .22463686446055  .35558574790733                  0.0
                                  0.0              0.0      -.2756437977538      -50.8215685                  0.0

 RSNNHA               -821.8298485516  5881.0277591786      .35096220621013  .35551435433647      20.903717540875  20.903717540875
                      5823.3223510518       98.0329493      .05670966365087        9.1787122      1045.1858770437     1045.1858770

            TERRA                 0.0              0.0      -.3509622062101  .35551435433647                  0.0
                                  0.0              0.0      -.0567096636509     -170.8212878                  0.0

 RSNNHB               5454.0600147125  5881.0277591785      -.1263690937433  .35551435433647      20.903717540874  20.903717540874
                      -2199.935649091      -21.9670507      -.3322970181716     -110.8212878      1045.1858770437     1045.1858770

            TERRA                 0.0              0.0       .1263690937433  .35551435433647                  0.0
                                  0.0              0.0      .33229701817165       69.1787122                  0.0

 RSNNHC               -4632.230166161  5881.0277591794      -.2245931124669  .35551435433652       20.90371754088   20.90371754088
                      -3623.386701961     -141.9670507      .27558735452077      129.1787122       1045.185877044     1045.1858770

            TERRA                 0.0              0.0      .22459311246686  .35551435433652                  0.0
                                  0.0              0.0      -.2755873545208      -50.8212878                  0.0

 X0001B               5455.1445073724  5882.2087735925      .20739532007E-3  .55438511595E-3      .38417857098E-4  .38417857098E-4
                      -2200.404158288      -21.9673313      .51413037062E-3       68.0313187      -1.630504496031       -1.6305045

            TERRA                 0.0              0.0      -.2073953201E-3  .55438511595E-3                  0.0
                                  0.0              0.0      -.5141303706E-3     -111.9686813                  0.0

 X0002B                -214334.421603  428660.90671602      .03498702768913  .04040033865139      .20402342039346  .20402342039346
                      -371228.9437298     -120.0006125       -.020201367692      -30.0019625      -8659.022896566    -8659.0228966

            TERRA                 0.0              0.0      -.0349870276891  .04040033865139                  0.0
                                  0.0              0.0        .020201367692      149.9980375                  0.0

 X0001A                -821.966354015  5882.2087735926      .43113254832861  .43764250325006      41.825334351949  .95765480324E-7
                       5824.495803844       98.0326687       .0752042979002        9.8947926      1286.4725605959        0.0000000

            LN1A      -821.9663544461  5882.2087735783      -.4311325483286  .43764250325006      -41.82533425618
                      5824.4958037688       98.0326687      -.0752042979002     -170.1052074      -1286.472560596

 SB1A                 428660.90669196  428660.90671645      .43056206777692  .44579159609092      92282.298499611  .99365074391E-7
                      -4.582148642828       -0.0006125      .11552684942018       15.0196265      -24761.90845956              0.0

            X0002A    428660.90669153  428660.90671602      -.4305620677769  .44579159609092      -92282.29849951
                      -4.582148758355       -0.0006125      -.1155268494202     -164.9803735      24761.908459557

 X0001B               5455.1445073724  5882.2087735925      -.1504376996309  .43764253315844      41.824562018706  .95765493424E-7
                      -2200.404158288      -21.9673313      -.4109738256375     -110.1052420      1286.4726737156              0.0

            LN1B      5455.1445075229  5882.2087735783      .15043769963086  .43764253315844      -41.82456192294
                      -2200.404157877      -21.9673313      .41097382563748       69.8947580      -1286.472673716

 SB1B                 -214334.4216031  428660.90671645      -.1152511686087  .44583269022123      92291.305465443  .99383392183E-7
                      -371228.9437302     -120.0006125      -.4306784830987     -104.9815308       -24762.3269928        0.0000000

            X0002B     -214334.421603  428660.90671602      .11525116860867  .44583269022123      -92291.30546534
                      -371228.9437298     -120.0006125      .43067848309875       75.0184692      24762.326992804

 X0001C               -4633.178153357  5882.2087735933      -.2806955308188  .43764272732282      41.826430414768  .95765578412E-7
                      -3624.091645556     -141.9673313      .33576952773728      129.8948404      1286.4731843304              0.0

            LN1C      -4633.178153077  5882.2087735791      .28069553081878  .43764272732282        -41.826430319
                      -3624.091645892     -141.9673313      -.3357695277373      -50.1051596       -1286.47318433

 SB1C                 -214326.4850889  428660.90671645      -.3153400029987  .44581407566305      92287.432695646  .99375093043E-7
                      371233.52587883      119.9993875      .31513627618551      135.0185141      -24761.36538251              0.0

            X0002C    -214326.4850885  428660.90671602      .31534000299871  .44581407566305      -92287.43269555
                      371233.52587851      119.9993875      -.3151362761855      -44.9814859       24761.36538251

 XX0005               428660.90669153  428660.90671602                  0.0              0.0                  0.0              0.0
                      -4.582148758355       -0.0006125                  0.0              0.0                  0.0              0.0

            X0002A    428660.90669153  428660.90671602                  0.0              0.0                  0.0
                      -4.582148758355       -0.0006125                  0.0              0.0                  0.0

 XX0003                -214334.421603  428660.90671602                  0.0              0.0                  0.0              0.0
                      -371228.9437298     -120.0006125                  0.0              0.0                  0.0              0.0

            X0002B     -214334.421603  428660.90671602                  0.0              0.0                  0.0
                      -371228.9437298     -120.0006125                  0.0              0.0                  0.0

 XX0004               -214326.4850885  428660.90671602                  0.0              0.0                  0.0              0.0
                      371233.52587851      119.9993875                  0.0              0.0                  0.0              0.0

            X0002C    -214326.4850885  428660.90671602                  0.0              0.0                  0.0
                      371233.52587851      119.9993875                  0.0              0.0                  0.0

 X0001A                -821.966354015  5882.2087735926      -.5489476219E-3  .55438511595E-3      .38417857098E-4  .38417857098E-4
                       5824.495803844       98.0326687       -.774555695E-4     -171.9686813      -1.630504496031       -1.6305045

            TERRA                 0.0              0.0      .54894762185E-3  .55438511595E-3                  0.0
                                  0.0              0.0      .77455569505E-4        8.0313187                  0.0

 X0001A                -821.966354015  5882.2087735926      -.4294828730455  .42952242827265      193.48595567217  92244.758194615
                       5824.495803844       98.0326687       .0058290779526      179.2224112      -1248.364942962        0.0000000

            X0002A    428660.90669153  428660.90671602      .42948287304554  .42952242827265      92051.272238943
                      -4.582148758355       -0.0006125      -.0058290779526       -0.7775888      1248.3649429623

 X0001B               5455.1445073724  5882.2087735925      .21978956611036  .42952242827265      193.48595567228  92244.758194615
                      -2200.404158288      -21.9673313      .36902853957147       59.2224112      -1248.364942962        0.0000000

            X0002B     -214334.421603  428660.90671602      -.2197895661104  .42952242827265      92051.272238943
                      -371228.9437298     -120.0006125      -.3690285395715     -120.7775888      1248.3649429623

 X0001C               -4633.178153357  5882.2087735933      .20969330693518  .42952242827265      193.48595567239  92244.758194616
                      -3624.091645556     -141.9673313      -.3748576175241      -60.7775888      -1248.364942962        0.0000000

            X0002C    -214326.4850885  428660.90671602      -.2096933069352  .42952242827265      92051.272238943
                      371233.52587851      119.9993875      .37485761752407      119.2224112      1248.3649429625

 X0002C               -214326.4850885  428660.90671602       -.034988411457  .04040033865139      .20402342039314  .20402342039314
                      371233.52587851      119.9993875      -.0201989709357     -150.0019625      -8659.022896566    -8659.0228966

            TERRA                 0.0              0.0      .03498841145703  .04040033865139                  0.0
                                  0.0              0.0      .02019897093569       29.9980375                  0.0

 X0002A               428660.90669153  428660.90671602      .13837678991E-5  .04040033865139      .20402342039338  .20402342039338
                      -4.582148758355       -0.0006125      .04040033862769       89.9980375      -8659.022896566    -8659.0228966

            TERRA                 0.0              0.0      -.1383767899E-5  .04040033865139                  0.0
                                  0.0              0.0      -.0404003386277      -90.0019625                  0.0

 X0001C               -4633.178153357  5882.2087735933      .34155230178E-3  .55438511595E-3      .38417857098E-4  .38417857098E-4
                      -3624.091645556     -141.9673313      -.4366748011E-3      -51.9686813      -1.630504496031       -1.6305045

            TERRA                 0.0              0.0      -.3415523018E-3  .55438511595E-3                  0.0
                                  0.0              0.0      .43667480112E-3      128.0313187                  0.0

 X0001A                -821.966354015  5882.2087735926      -.0011006627795  .08096307029033      -235.3103885645  .40968867192731
                       5824.495803844       98.0326687      -.0809555883944      -90.7789388      -36.47678778516   -17387.7272709

            X0002A    428660.90669153  428660.90671602       .0011006627795  .08096307029033      235.72007723643
                      -4.582148758355       -0.0006125      .08095558839439       89.2210612      -17351.25048314

 X0001B               5455.1445073724  5882.2087735925      -.0695592647381  .08096307029033      -235.3103885645   .4096886719265
                      -2200.404158288      -21.9673313      .04143099612524      149.2210612      -36.47678778518   -17387.7272709

            X0002B     -214334.421603  428660.90671602      .06955926473811  .08096307029033      235.72007723643
                      -371228.9437298     -120.0006125      -.0414309961252      -30.7789388      -17351.25048314

 X0001C               -4633.178153357  5882.2087735933      .07065992751761  .08096307029033      -235.3103885645  .40968867192681
                      -3624.091645556     -141.9673313      .03952459226915       29.2210612       -36.4767877852   -17387.7272709

            X0002C    -214326.4850885  428660.90671602      -.0706599275176  .08096307029033      235.72007723646
                      371233.52587851      119.9993875      -.0395245922692     -150.7789388      -17351.25048314

 LN1A                 -821.9663544461  5882.2087735783      .08009950942895  .08220471915836      20.912502101111  .00878456016903
                      5824.4958037688       98.0326687       .0184847083057       12.9947568      240.86653242593     -804.3193446

            VFF2A     -821.8298485516  5881.0277591786      -.3509622062102  .35551435433654      -20.90371754094
                      5823.3223510518       98.0329493      -.0567096636509     -170.8212878      -1045.185877044

 LN1B                 5455.1445075229  5882.2087735783      -.0240415277402  .08220471915845      20.912502101175  .00878456016043
                      -2200.404157877      -21.9673313      -.0786105641491     -107.0052432      240.86653242619     -804.3193446

            VFF2B     5454.0600147125  5881.0277591785      .12636909374332  .35551435433662      -20.90371754101
                      -2199.935649091      -21.9670507      .33229701817181       69.1787122      -1045.185877044

 LN1C                 -4633.178153077  5882.2087735791      -.0560579816887  .08220471915839      20.912502100912  .00878456017801
                      -3624.091645892     -141.9673313      .06012585584335      132.9947568      240.86653242609     -804.3193446

            VFF2C     -4632.230166161  5881.0277591794      .22459311246689  .35551435433662      -20.90371754073
                      -3623.386701961     -141.9670507      -.2755873545209      -50.8212878      -1045.185877044
     Total network loss  P-loss  by summing injections =   2.771496914127E+05

Output for steady-state phasor switch currents.
      Node-K    Node-M            I-real            I-imag            I-magn          Degrees        Power            Reactive
      LN1A      COMPA         3.51032956E-01    5.67189219E-02    3.55585675E-01       9.1784    2.09109219E+01    1.04560551E+03
      LN1B      COMPB        -1.26396553E-01   -3.32362948E-01    3.55585739E-01    -110.8216    2.09106767E+01    1.04560571E+03
      LN1C      COMPC        -2.24637365E-01    2.75643347E-01    3.55585715E-01     129.1785    2.09140905E+01    1.04560557E+03
      VFF2A     RSNNHA        3.50962206E-01    5.67096637E-02    3.55514354E-01       9.1787    2.09037175E+01    1.04518588E+03
      VFF2B     RSNNHB       -1.26369094E-01   -3.32297018E-01    3.55514354E-01    -110.8213    2.09037175E+01    1.04518588E+03
      VFF2C     RSNNHC       -2.24593112E-01    2.75587355E-01    3.55514354E-01     129.1787    2.09037175E+01    1.04518588E+03
      VFF2A     SE2A              Open              Open              Open             Open          Open              Open
      VFF2B     SE2B              Open              Open              Open             Open          Open              Open
      VFF2C     SE2C              Open              Open              Open             Open          Open              Open
      X0001B    XX0003            Open              Open              Open             Open          Open              Open
      X0001C    XX0004            Open              Open              Open             Open          Open              Open
      XX0005    X0002A            Open              Open              Open             Open          Open              Open
      XX0003    X0002B            Open              Open              Open             Open          Open              Open
      XX0004    X0002C            Open              Open              Open             Open          Open              Open
      X0001A    XX0005            Open              Open              Open             Open          Open              Open
      VFUENA    IFUENA        4.30997767E-01    1.15526845E-01    4.46212423E-01      15.0051    9.23759033E+04   -2.47609093E+04
      VFUENB    IFUENB       -1.15449701E-01   -4.31018437E-01    4.46212423E-01    -104.9949    9.23759033E+04   -2.47609093E+04
      VFUENC    IFUENC       -3.15548066E-01    3.15491593E-01    4.46212423E-01     135.0051    9.23759033E+04   -2.47609093E+04
      COMPA     RSNSHA        3.51032956E-01    5.67189219E-02    3.55585675E-01       9.1784    2.09109219E+01    1.04560551E+03
      COMPB     RSNSHB       -1.26396553E-01   -3.32362948E-01    3.55585739E-01    -110.8216    2.09106767E+01    1.04560571E+03
      COMPC     RSNSHC       -2.24637365E-01    2.75643347E-01    3.55585715E-01     129.1785    2.09140905E+01    1.04560557E+03

Solution at nodes with known voltage.   Nodes that are shorted together by switches are shown as a group of names, with the printed
result applying to the composite group.   The entry "MVA" is  SQRT( P**2 + Q**2 )  in units of power,  while  "P.F."  is the
associated power factor.
              Node                Source  node  voltage             Injected  source  current              Injected  source  power
              name         Rectangular            Polar          Rectangular            Polar            P  and  Q    MVA and P.F.

               VFUENA
              IFUENA       428660.705       428660.705      .43099776685547   .4462124234828      92375.903296846  95636.866014948
                                  0.0              0.0      .11552684465522       15.0051275      -24760.90933817        0.9659027

               VFUENB
              IFUENB     -214330.3525       428660.705      -.1154497011446  .44621242348107      92375.903296936  95636.866014576
                      -371231.0601341     -120.0000000       -.431018437395     -104.9948725      -24760.90933639        0.9659027

               VFUENC
              IFUENC     -214330.3525       428660.705      -.3155480657107  .44621242348163      92375.903297128  95636.866014696
                      371231.06013415      120.0000000      .31549159274946      135.0051275      -24760.90933614        0.9659027

  +++  Node  "COMPC "  has no connected linear branches.  Add (to ground) the conductance  G = 1.00000000E-18  mhos.
  +++  Node  "COMPB "  has no connected linear branches.  Add (to ground) the conductance  G = 1.00000000E-18  mhos.
  +++  Node  "COMPA "  has no connected linear branches.  Add (to ground) the conductance  G = 1.00000000E-18  mhos.
Card of names for time-step loop output.          |  LN1A  LN1B  LN1C  COMPA COMPB COMPC SB1A  SB1B  SB1C  SE2A  SE2B  SE2C  VFF2A
Card of names for time-step loop output.          |  VFF2B VFF2C IFUENAIFUENBIFUENC
Card of names for time-step loop output.          |-5VFF2A VFF2B VFF2B VFF2C VFF2C VFF2A LN1A  LN1B  LN1B  LN1C  LN1C  LN1A
Card of names for time-step loop output.          |-5SB1A  SB1B  SB1B  SB1C  SB1C  SB1A
Blank card ending requests for output variables.  |BLANK OUTPUT

Column headings for the  55   EMTP output variables follow.  These are divided among the 5 possible classes as follows ....
  First  27     output variables are electric-network voltage differences (upper voltage minus lower voltage);
  Next   6     output variables are branch currents (flowing from the upper node to the lower node);
  Next   22     output variables belong to MODELS (with "MODELS" an internally-added upper name of pair).
   Step      Time      LN1A       LN1B       LN1C       COMPA      COMPB      COMPC      SB1A       SB1B       SB1C       SE2A
 

                       SE2B       SE2C       VFF2A      VFF2B      VFF2C      IFUENA     IFUENB     IFUENC     VFF2A      VFF2B
                                                                                                               VFF2B      VFF2C

                       VFF2C      LN1A       LN1B       LN1C       SB1A       SB1B       SB1C       VFUENA     VFUENB     VFUENC
                       VFF2A      LN1B       LN1C       LN1A       SB1B       SB1C       SB1A       IFUENA     IFUENB     IFUENC

                       COMPA      COMPB      COMPC      MODELS     MODELS     MODELS     MODELS     MODELS     MODELS     MODELS
                       RSNSHA     RSNSHB     RSNSHC     ANVOL      LONG       R0F        R1F        X0F        X1F        RDIVX

                       MODELS     MODELS     MODELS     MODELS     MODELS     MODELS     MODELS     MODELS     MODELS     MODELS
                       RINSER     CLOSE1     RPPOS      RPCERO     LPPOS      LPCERO     CPPOS      CPCERO     XP         CR

                       MODELS     MODELS     MODELS     MODELS     MODELS
                       SIMET      ENC1       ENC2       ENC1AS     ENC2AS
 ***      Phasor I(0) =  3.5103296E-01                     Switch  "LN1A  "  to  "COMPA "  closed in the steady-state.
 ***      Phasor I(0) = -1.2639655E-01                     Switch  "LN1B  "  to  "COMPB "  closed in the steady-state.
 ***      Phasor I(0) = -2.2463737E-01                     Switch  "LN1C  "  to  "COMPC "  closed in the steady-state.
 ***      Phasor I(0) =  3.5096221E-01                     Switch  "VFF2A "  to  "RSNNHA"  closed in the steady-state.
 ***      Phasor I(0) = -1.2636909E-01                     Switch  "VFF2B "  to  "RSNNHB"  closed in the steady-state.
 ***      Phasor I(0) = -2.2459311E-01                     Switch  "VFF2C "  to  "RSNNHC"  closed in the steady-state.
 ***      Phasor I(0) =  4.3099777E-01                     Switch  "VFUENA"  to  "IFUENA"  closed in the steady-state.
 ***      Phasor I(0) = -1.1544970E-01                     Switch  "VFUENB"  to  "IFUENB"  closed in the steady-state.
 ***      Phasor I(0) = -3.1554807E-01                     Switch  "VFUENC"  to  "IFUENC"  closed in the steady-state.
 ***      Phasor I(0) =  3.5103296E-01                     Switch  "COMPA "  to  "RSNSHA"  closed in the steady-state.
 ***      Phasor I(0) = -1.2639655E-01                     Switch  "COMPB "  to  "RSNSHB"  closed in the steady-state.
 ***      Phasor I(0) = -2.2463737E-01                     Switch  "COMPC "  to  "RSNSHC"  closed in the steady-state.
      0       0.0  -821.96635 5455.14451 -4633.1782 -821.96635 5455.14451 -4633.1782 428660.907 -214334.42 -214326.49        0.0
                          0.0        0.0 -821.82985 5454.06001 -4632.2302 428660.705 -214330.35 -214330.35 -6275.8899 10086.2902
                   -3810.4003 -6277.1109 10088.3227 -3811.2118 642995.328 -7.9365143 -642987.39 .430997767  -.1154497 -.31554807
                   .351032956 -.12639655 -.22463737        0.0   12.74046   2.255268   2.222092    10.1857   10.03587    .221415
                         440.    .044609    .024103    .190463    .423137   1.278382     .01162    .007711   33077.85   661.5571
                          1.0        1.0        1.0        0.0        0.0
    500     .5E-3  -1722.9967 5732.19889 -4009.2022 -1722.9967 5732.19889 -4009.2022 423384.036 -153622.58 -269761.46        0.0
                          0.0        0.0 -1722.6798 5731.05512 -4008.3753  423383.18 -153618.26 -269764.92 -7453.7349 9739.43043
                   -2285.6955 -7455.1956 9741.40104 -2286.2054 577006.613  116138.88 -693145.49 .407643172 -.04661147  -.3610317
                   .337838129 -.07284694 -.26499142        0.0   12.74046   2.255268   2.222092    10.1857   10.03587    .221415
                         440.    .044609    .024103    .190463    .423137   1.278382     .01162    .007711   33077.85   661.5571
                          1.0        1.0        1.0        0.0        0.0
   1000     .1E-2  -2581.6027 5868.10835 -3286.5057 -2581.6027 5868.10835 -3286.5057 407682.197 -89128.112 -318554.08        0.0
                          0.0        0.0 -2581.1118 5866.93278  -3285.821 407680.557 -89123.572 -318556.98 -8448.0446 9152.75376
                   -704.70917 -8449.7111 9154.61401 -704.90295 496810.309 229425.972 -726236.28 .374227583 .023386223 -.39761381
                   .316325006 -.01750336 -.29882119        0.0   12.74046   2.255268   2.222092    10.1857   10.03587    .221415
                         440.    .044609    .024103    .190463    .423137   1.278382     .01162    .007711   33077.85   661.5571
                          1.0        1.0        1.0        0.0        0.0
   1500     .0015  -3376.6428 5859.52663 -2482.8838 -3376.6428 5859.52663 -2482.8838  381941.75 -22438.957 -359502.79        0.0
                          0.0        0.0  -3375.984 5858.34528 -2482.3612 381939.485 -22434.368 -359505.12 -9234.3293 8340.70652
                   893.622809 -9236.1694 8342.41047 893.758968 404380.707 337063.836 -741444.54 .331588543 .092812417 -.42440096
                   .287022357 .038269713 -.32529253        0.0   12.74046   2.255268   2.222092    10.1857   10.03587    .221415
                         440.    .044609    .024103    .190463    .423137   1.278382     .01162    .007711   33077.85   661.5571
                          1.0        1.0        1.0        0.0        0.0
   2000      .002   -4088.534 5706.66191 -1618.1279  -4088.534 5706.66191 -1618.1279 346796.639 44802.7152 -391599.35        0.0
                          0.0        0.0 -4087.7332 5705.50868 -1617.7755 346793.795 44807.2448 -391601.04 -9793.2419 7323.28419
                   2469.95767 -9795.1959 7324.78986 2470.40602 301993.923 436402.069 -738395.99 .280796538 .159947351 -.44074389
                   .250652526 .093101896 -.34375442        0.0   12.74046   2.255268   2.222092    10.1857   10.03587    .221415
                         440.    .044609    .024103    .190463    .423137   1.278382     .01162    .007711   33077.85   661.5571
                          1.0        1.0        1.0        0.0        0.0
   2500     .0025  -4699.7527 5413.28118 -713.52845 -4699.7527 5413.28118 -713.52845 303112.277 110941.179 -414053.46        0.0
                          0.0        0.0 -4698.8283  5412.1838 -713.35552 303108.891 110945.554 -414054.45 -10111.012 6125.53932
                   3985.47277 -10113.034 6126.80963 3986.22427 192171.098 524994.635 -717165.73 .223086618 .223145734 -.44623235
                   .208111062 .145640467 -.35375176        0.0   12.74046   2.255268   2.222092    10.1857   10.03587    .221415
                         440.    .044609    .024103    .190463    .423137   1.278382     .01162    .007711   33077.85   661.5571
                          1.0        1.0        1.0        0.0        0.0
   3000      .003  -5195.2504 4986.60923 208.641128 -5195.2504 4986.60923 208.641128 251964.267 174347.912 -426312.18        0.0
                          0.0        0.0 -5194.2197 4985.59211 208.627555 251960.441 174352.016 -426312.46 -10179.812 4776.96455
                   5402.84722  -10181.86  4777.9681 5403.89149 77616.3547  600660.09 -678276.45 .159882189 .280850217 -.44073241
                    .16044528 .194593867 -.35503858        0.0   12.74046   2.255268   2.222092    10.1857   10.03587    .221415
                         440.    .044609    .024103    .190463    .423137   1.278382     .01162    .007711   33077.85   661.5571
                          1.0        1.0        1.0        0.0        0.0
   3500     .0035  -5562.8219 4437.15004 1125.67186 -5562.8219 4437.15004 1125.67186 194612.062 233461.619 -428073.68        0.0
                          0.0        0.0 -5561.7135 4436.23981 1125.47365 194607.888 233465.353 -428073.24 -9997.9533 3310.76616
                   6687.18712 -9999.9719 3311.47818 6688.49377 -38849.557 661535.301 -622685.74  .09274282 .331638289 -.42438111
                   .108828186 .238755037 -.34758322        0.0   12.74046   2.255268   2.222092    10.1857   10.03587    .221415
                         440.    .044609    .024103    .190463    .423137   1.278382     .01162    .007711   33077.85   661.5571
                          1.0        1.0        1.0        0.0        0.0
   4000      .004  -5793.4182  3778.4339 2014.98434 -5793.4182  3778.4339 2014.98434 132467.865 286826.726 -419294.59        0.0
                          0.0        0.0 -5792.2609 3777.65369 2014.60719 132463.443 286829.997 -419293.44 -9569.9146  1763.0465
                   7806.86808 -9571.8521 1763.44956 7808.40258 -154358.86 706121.317 -551762.46 .023319404 .374260526 -.39757993
                   .054531566 .277037432 -.33156923        0.0   12.74046   2.255268   2.222092    10.1857   10.03587    .221415
                         440.    .044609    .024103    .190463    .423137   1.278382     .01162    .007711   33077.85   661.5571
                          1.0        1.0        1.0        0.0        0.0
   4500     .0045  -5881.3622 3026.68096 2854.68123 -5881.3622 3026.68096 2854.68123 67061.8659 333129.209 -400191.07        0.0
                          0.0        0.0 -5880.1827 3026.04912 2854.13358 67057.3081 333131.936 -400189.24 -8906.2318  171.91554
                   8734.31628 -8908.0432 171.999732 8736.04342 -266067.34 733320.283 -467252.94 -.04667821 .407667228 -.36098902
                   -.00110722 .308498106 -.30739089        0.0   12.74046   2.255268   2.222092    10.1857   10.03587    .221415
                         440.    .044609    .024103    .190463    .423137   1.278382     .01162    .007711   33077.85   661.5571
                          1.0        1.0        1.0        0.0        0.0
   5000      .005  -5824.4876  2200.4015 3624.08611 -5824.4876  2200.4015 3624.08611 4.58172343 371228.944 -371233.53        0.0
                          0.0        0.0 -5823.3147 2199.93344 3623.38129 -.45661E-7  371231.06 -371231.06 -8023.2482 -1423.4479
                   9446.69602 -8024.8891 -1423.6846 9448.57372 -371224.36  742462.47 -371238.11 -.11552662 .431035896 -.31550928
                   -.05671955 .332362858 -.27564331        0.0   12.74046   2.255268   2.222092    10.1857   10.03587    .221415
                         440.    .044609    .024103    .190463    .423137   1.278382     .01162    .007711   33077.85   661.5571
                          1.0        1.0        1.0        0.0        0.0
   5500     .0055  -5624.1955 1319.94146   4304.254 -5624.1955 1319.94146   4304.254 -67052.815 400187.791 -333134.98        0.0
                          0.0        0.0 -5623.0582 1319.64874 4303.40947 -67057.308 400189.244 -333131.94  -6942.707 -2983.7607
                   9926.46768 -6944.1369 -2984.3125 9928.44946 -467240.61 733322.766 -266082.16 -.18153068 .443791183  -.2622605
                   -.11093427  .34804328 -.23710855        0.0   12.74046   2.255268   2.222092    10.1857   10.03587    .221415
                         440.    .044609    .024103    .190463    .423137   1.278382     .01162    .007711   33077.85   661.5571
                          1.0        1.0        1.0        0.0        0.0
   6000      .006  -5285.4174 406.980524  4878.4369 -5285.4174 406.980524  4878.4369 -132459.15 419292.685 -286833.54        0.0
                          0.0        0.0 -5284.3439 406.870381 4877.47357 -132463.44  419293.44   -286830. -5691.2143 -4470.6032
                   10161.8175 -5692.3979 -4471.4564 10163.8543 -551751.83 706126.222 -154374.39 -.24306467 .445618766  -.2025541
                   -.16241841 .355154103 -.19273558        0.0   12.74046   2.255268   2.222092    10.1857   10.03587    .221415
                         440.    .044609    .024103    .190463    .423137   1.278382     .01162    .007711   33077.85   661.5571
                          1.0        1.0        1.0        0.0        0.0
   6500     .0065  -4816.4951 -516.00149 5332.49656 -4816.4951 -516.00149 5332.49656  -194603.9 428073.201 -233469.31        0.0
                          0.0        0.0  -4815.512 -515.92625 5331.43828 -194607.89  428073.24 -233465.35 -4299.5858 -5847.3645
                   10146.9503 -4300.4936 -5848.4981 10148.9916  -622677.1 661542.508 -38865.411 -.29861344 .436473653 -.13786021
                    -.2099027 .353519845 -.14361703        0.0   12.74046   2.255268   2.222092    10.1857   10.03587    .221415
                         440.    .044609    .024103    .190463    .423137   1.278382     .01162    .007711   33077.85   661.5571
                          1.0        1.0        1.0        0.0        0.0
   7000      .007  -4228.9752 -1426.2777 5655.25292 -4228.9752 -1426.2777 5655.25292 -251956.85 426313.136 -174356.28        0.0
                          0.0        0.0 -4228.1062 -1426.0192 5654.12544 -251960.44 426312.457 -174352.02  -2802.087 -7080.1447
                   9882.23164 -2802.6975 -7081.5306 9884.22814 -678269.99 600669.421 77600.5659 -.34680925 .416581055  -.0697718
                   -.25221877 .343180807 -.09096181        0.0   12.74046   2.255268   2.222092    10.1857   10.03587    .221415
                         440.    .044609    .024103    .190463    .423137   1.278382     .01162    .007711   33077.85   661.5571
                          1.0        1.0        1.0        0.0        0.0
   7500     .0075  -3537.3242 -2301.4344 5838.75856 -3537.3242 -2301.4344 5838.75856 -303105.79 414055.826 -110950.03        0.0
                          0.0        0.0 -3536.5904 -2300.9992 5837.58955 -303108.89 414054.446 -110945.55 -1235.5912 -8138.5887
                   9374.17995 -1235.8898  -8140.193 9376.08274 -717161.62 525005.859 192155.761 -.38646547 .386430845 .346211E-4
                   -.28832403 .324391283 -.03606725        0.0   12.74046   2.255268   2.222092    10.1857   10.03587    .221415
                         440.    .044609    .024103    .190463    .423137   1.278382     .01162    .007711   33077.85   661.5571
                          1.0        1.0        1.0        0.0        0.0
   8000      .008  -2758.5721 -3119.9227 5878.49479 -2758.5721 -3119.9227 5878.49479 -346791.27 391603.088 -44811.823        0.0
                          0.0        0.0 -2757.9923 -3119.3211 5877.31334  -346793.8  391601.04 -44807.245 361.328778 -8996.6344
                   8635.30563 361.350535 -8998.4175 8637.06692 -738394.35 436414.911 301979.442 -.41660578  .34676551  .06984027
                   -.31732996 .297614476 .019715936        0.0   12.74046   2.255268   2.222092    10.1857   10.03587    .221415
                         440.    .044609    .024103    .190463    .423137   1.278382     .01162    .007711   33077.85   661.5571
                          1.0        1.0        1.0        0.0        0.0
   8500     .0085  -1911.8952 -3861.5884 5773.48351 -1911.8952 -3861.5884 5773.48351 -381937.58 359507.782 22429.8027        0.0
                          0.0        0.0 -1911.4836 -3860.8351 5772.31876 -381939.48 359505.117 22434.3679 1949.35149 -9633.1539
                   7683.80239 1949.69321 -9635.0719 7685.37866 -741445.37 337077.979 404367.388 -.43648798 .298561714 .137926269
                   -.33852216 .263509417 .075012515        0.0   12.74046   2.255268   2.222092    10.1857   10.03587    .221415
                         440.    .044609    .024103    .190463    .423137   1.278382     .01162    .007711   33077.85   661.5571
                          1.0        1.0        1.0        0.0        0.0
   9000      .009  -1018.1415 -4508.1691 5526.31063 -1018.1415 -4508.1691 5526.31063 -407679.33 318560.201 89119.1319        0.0
                          0.0        0.0 -1017.9082 -4507.2829 5525.19108 -407680.56 318556.985  89123.572 3489.37469 -10032.474
                   6543.09928 3490.02758  -10034.48 6544.45216 -726239.53 229441.069 496798.465 -.44562239  .24300633 .202616056
                   -.35137904 .222915743 .128463072        0.0   12.74046   2.255268   2.222092    10.1857   10.03587    .221415
                         440.    .044609    .024103    .190463    .423137   1.278382     .01162    .007711   33077.85   661.5571
                          1.0        1.0        1.0        0.0        0.0
   9500     .0095  -99.317926 -5043.7442 5143.06215 -99.317926 -5043.7442 5143.06215 -423382.66  269768.61 153614.052        0.0
                          0.0        0.0 -99.268611 -5042.7468 5142.01539 -423383.18 269764.922 153618.258 4943.47817 -10184.762
                     5241.284  4944.4263 -10186.806 5242.38008 -693151.27 116154.558 576996.715   -.443784 .181467278 .262316722
                   -.35558367 .176833511 .178750814        0.0   12.74046   2.255268   2.222092    10.1857   10.03587    .221415
                         440.    .044609    .024103    .190463    .423137   1.278382     .01162    .007711   33077.85   661.5571
                          1.0        1.0        1.0        0.0        0.0
  10000       .01  821.951595 -5455.1263 4633.17472 821.951595 -5455.1263 4633.17472 -428660.91 214334.421 214326.485        0.0
                          0.0        0.0 821.815376  -5454.042 4632.22666 -428660.71 214330.353 214330.352 6275.85741 -10086.269
                   3810.41128 6277.07791 -10088.301 3811.22313 -642995.33 7.93684202 642987.391 -.43101807 .115459844 .315558229
                   -.35103267 .126396485 .224636072        0.0   12.74046   2.255268   2.222092    10.1857   10.03587    .221415
                         440.    .044609    .024103    .190463    .423137   1.278382     .01162    .007711   33077.85   661.5571
                          1.0        1.0        1.0        0.0        0.0
  10500     .0105  1722.98245 -5732.1858 4009.20338 1722.98245 -5732.1858 4009.20338  -423384.1 153622.608 269761.488        0.0
                          0.0        0.0 1722.66395 -5731.0414  4008.3774 -423383.18 153618.258 269764.922 7453.70531 -9739.4188
                   2285.71344 7455.16828 -9741.3892 2286.22093  -577006.7 -116138.88 693145.584 -.40763902 .046609393 .361029632
                   -.33783819 .072847061 .264990898        0.0   12.74046   2.255268   2.222092    10.1857   10.03587    .221415
                         440.    .044609    .024103    .190463    .423137   1.278382     .01162    .007711   33077.85   661.5571
                          1.0        1.0        1.0        0.0        0.0
  11000      .011  2581.58815 -5868.1005 3286.51235 2581.58815 -5868.1005 3286.51235 -407682.16 89128.0962 318554.069        0.0
                          0.0        0.0 2581.09542 -5866.9241 3285.82869 -407680.56  89123.572 318556.985 8448.01953 -9152.7528
                   704.733267 8449.68865 -9154.6128 704.924194 -496810.26 -229425.97 726236.233 -.37422264 -.02338869 .397611328
                    -.3163247 .017504914 .298820242        0.0   12.74046   2.255268   2.222092    10.1857   10.03587    .221415
                         440.    .044609    .024103    .190463    .423137   1.278382     .01162    .007711   33077.85   661.5571
                          1.0        1.0        1.0        0.0        0.0
  11500     .0115  3376.62676 -5859.5234 2482.89666 3376.62676 -5859.5234 2482.89666 -381941.75 22438.9548 359502.791        0.0
                          0.0        0.0 3375.97204 -5858.3441  2482.3721 -381939.48 22434.3679 359505.117 9234.31618 -8340.7162
                   -893.59994 9236.15018 -8342.4201  -893.7301  -404380.7 -337063.84 741444.536 -.33159176 -.09281081 .424402564
                   -.28702274 -.03826898 .325292174        0.0   12.74046   2.255268   2.222092    10.1857   10.03587    .221415
                         440.    .044609    .024103    .190463    .423137   1.278382     .01162    .007711   33077.85   661.5571
                          1.0        1.0        1.0        0.0        0.0
  12000      .012  4088.52166 -5706.6656 1618.14392 4088.52166 -5706.6656 1618.14392 -346796.65 -44802.708 391599.361        0.0
                          0.0        0.0 4087.72099 -5705.5124 1617.79145  -346793.8 -44807.245  391601.04 9793.23343 -7323.3039
                   -2469.9295 9795.18724 -7324.8095 -2470.3777 -301993.94 -436402.07 738396.013 -.28079601  -.1599476 .440743612
                   -.25065309 -.09310093 .343753794        0.0   12.74046   2.255268   2.222092    10.1857   10.03587    .221415
                         440.    .044609    .024103    .190463    .423137   1.278382     .01162    .007711   33077.85   661.5571
                          1.0        1.0        1.0        0.0        0.0
  12500     .0125   4699.7437 -5413.2908 713.547071  4699.7437 -5413.2908 713.547071 -303112.27 -110941.18 414053.454        0.0
                          0.0        0.0 4698.81684 -5412.1922 713.375368 -303108.89 -110945.55 414054.446 10111.0091 -6125.5676
                   -3985.4415 10113.0345 -6126.8378 -3986.1966 -192171.09 -524994.63 717165.729 -.22308607 -.22314599 .446232058
                    -.2081119 -.14563949  .35375139        0.0   12.74046   2.255268   2.222092    10.1857   10.03587    .221415
                         440.    .044609    .024103    .190463    .423137   1.278382     .01162    .007711   33077.85   661.5571
                          1.0        1.0        1.0        0.0        0.0
  13000      .013  5195.24275 -4986.6229  -208.6199 5195.24275 -4986.6229  -208.6199 -251964.27 -174347.91 426312.178        0.0
                          0.0        0.0 5194.21274  -4985.606 -208.60669 -251960.44 -174352.02 426312.457 10179.8188 -4776.9994
                   -5402.8194 10181.8656  -4778.003 -5403.8627 -77616.354 -600660.09 678276.444 -.15988292 -.28084983 .440732747
                   -.16044536 -.19459251 .355038385        0.0   12.74046   2.255268   2.222092    10.1857   10.03587    .221415
                         440.    .044609    .024103    .190463    .423137   1.278382     .01162    .007711   33077.85   661.5571
                          1.0        1.0        1.0        0.0        0.0
  13500     .0135  5562.81822 -4437.1678 -1125.6504 5562.81822 -4437.1678 -1125.6504 -194612.06 -233461.62 428073.681        0.0
                          0.0        0.0 5561.71051 -4436.2579 -1125.4526 -194607.89 -233465.35  428073.24  9997.9684 -3310.8053
                   -6687.1631 9999.98606 -3311.5175 -6688.4686 38849.5579  -661535.3 622685.743 -.09274289 -.33163823 .424381121
                    -.1088287 -.23875455 .347583251        0.0   12.74046   2.255268   2.222092    10.1857   10.03587    .221415
                         440.    .044609    .024103    .190463    .423137   1.278382     .01162    .007711   33077.85   661.5571
                          1.0        1.0        1.0        0.0        0.0
  14000      .014  5793.41918  -3778.455 -2014.9642 5793.41918  -3778.455 -2014.9642 -132467.86 -286826.73  419294.59        0.0
                          0.0        0.0   5792.261 -3777.6743 -2014.5867 -132463.44   -286830.  419293.44 9569.93532 -1763.0876
                   -7806.8477 9571.87419 -1763.4909 -7808.3833 154358.864 -706121.32 551762.453 -.02331927 -.37426057 .397579848
                   -.05453226 -.27703704 .331569301        0.0   12.74046   2.255268   2.222092    10.1857   10.03587    .221415
                         440.    .044609    .024103    .190463    .423137   1.278382     .01162    .007711   33077.85   661.5571
                          1.0        1.0        1.0        0.0        0.0
  14500     .0145  5881.36711 -3026.7038 -2854.6633 5881.36711 -3026.7038 -2854.6633 -67061.866 -333129.21 400191.074        0.0
                          0.0        0.0 5880.18695 -3026.0716 -2854.1154 -67057.308 -333131.94 400189.244 8906.25852 -171.95619
                   -8734.3023 8908.07093 -172.04052 -8736.0304 266067.343 -733320.28  467252.94  .04667847 -.40766734 .360988873
                   .001106515  -.3084979 .307391383        0.0   12.74046   2.255268   2.222092    10.1857   10.03587    .221415
                         440.    .044609    .024103    .190463    .423137   1.278382     .01162    .007711   33077.85   661.5571
                          1.0        1.0        1.0        0.0        0.0
  % % % % % %   Suspended simulation;  plot data space exhausted;  SPY SPACE is required.   LIMBUF =  840000.
  % % % % % %   Suspended simulation;  plot data space exhausted;  SPY SPACE is required.   LIMBUF =  840000.
  +++  Time-sharing disabled.   Send  user-keyed interrupt to silence alarm.
   Current values.  INDBUF  INDBEG  LIMBUF  MFLUSH  NUMDCD  KCARD1  KCARD2
                    839994      50  840000    1000     230       1     231
Plot timespan now in memory (in sec) = 0.00000000E+00   1.49990000E-02
   ++++  Begin plot-data copy from memory to disk.   MFLUSH, INDBUF, N4, Tbeg,  Tend = 1001  839994       1  -1.00000E+00
1.00000E+19
  15000      .015   5824.4961 -2200.4246 -3624.0715  5824.4961 -2200.4246 -3624.0715 -4.5826764 -371228.94 371233.526        0.0
                          0.0        0.0 5823.32301 -2199.9564 -3623.3667 -.61533E-6 -371231.06  371231.06 8023.27937  1423.4103
                   -9446.6897 8024.92068 1423.64692 -9448.5676 371224.361 -742462.47 371238.109 .115526804 -.43103597 .315509169
                   .056719019 -.33236293 .275643908        0.0   12.74046   2.255268   2.222092    10.1857   10.03587    .221415
                         440.    .044609    .024103    .190463    .423137   1.278382     .01162    .007711   33077.85   661.5571
                          1.0        1.0        1.0        0.0        0.0
  15500     .0155  5624.20642  -1319.963 -4304.2434 5624.20642  -1319.963 -4304.2434 67052.8136 -400187.79 333134.976        0.0
                          0.0        0.0 5623.06928 -1319.6703  -4303.399 67057.3081 -400189.24 333131.936 6942.73956  2983.7287
                   -9926.4683 6944.16943 2984.28041 -9928.4498 467240.603 -733322.77 266082.163 .181530517 -.44379108 .262260568
                   .110934028 -.34804366 .237109176        0.0   12.74046   2.255268   2.222092    10.1857   10.03587    .221415
                         440.    .044609    .024103    .190463    .423137   1.278382     .01162    .007711   33077.85   661.5571
                          1.0        1.0        1.0        0.0        0.0
  16000      .016  5285.43011 -406.99908  -4878.431 5285.43011 -406.99908  -4878.431 132459.147 -419292.68 286833.538        0.0
                          0.0        0.0 5284.35676   -406.889 -4877.4678 132463.443 -419293.44 286829.997 5691.24576 4470.57877
                   -10161.825 5692.42919 4471.43194 -10163.861 551751.832 -706126.22  154374.39 .243064411 -.44561862 .202554211
                   .162418273 -.35515461 .192737192        0.0   12.74046   2.255268   2.222092    10.1857   10.03587    .221415
                         440.    .044609    .024103    .190463    .423137   1.278382     .01162    .007711   33077.85   661.5571
                          1.0        1.0        1.0        0.0        0.0
  16500     .0165   4816.5091 515.986857  -5332.496  4816.5091 515.986857  -5332.496 194603.897  -428073.2 233469.305        0.0
                          0.0        0.0 4815.52588 515.911674 -5331.4376 194607.888 -428073.24 233465.353 4299.61421 5847.34923
                   -10146.963 4300.52225 5848.48282 -10149.005 622677.099 -661542.51 38865.4088 .298613292 -.43647357 .137860281
                   .209902631 -.35352041  .14361778        0.0   12.74046   2.255268   2.222092    10.1857   10.03587    .221415
                         440.    .044609    .024103    .190463    .423137   1.278382     .01162    .007711   33077.85   661.5571
                          1.0        1.0        1.0        0.0        0.0
  17000      .017  4228.98971 1426.26782 -5655.2575 4228.98971 1426.26782 -5655.2575 251956.852 -426313.14 174356.284        0.0
                          0.0        0.0  4228.1208 1426.00925   -5654.13 251960.441 -426312.46 174352.016 2802.11155  7080.1393
                   -9882.2508 2802.72189 7081.52535 -9884.2472 678269.988 -600669.42 -77600.568 .346809299 -.41658108 .069771783
                   .252218758 -.34318155 .090962563        0.0   12.74046   2.255268   2.222092    10.1857   10.03587    .221415
                         440.    .044609    .024103    .190463    .423137   1.278382     .01162    .007711   33077.85   661.5571
                          1.0        1.0        1.0        0.0        0.0
  17500     .0175  3537.33833 2301.42976 -5838.7681 3537.33833 2301.42976 -5838.7681 303105.794 -414055.83 110950.033        0.0
                          0.0        0.0 3536.60511 2300.99418 -5837.5993 303108.891 -414054.45 110945.554 1235.61094 8138.59347
                   -9374.2044 1235.90857 8140.19784 -9376.1064  717161.62 -525005.86 -192155.76  .38646565 -.38643095   -.347E-4
                   .288324045 -.32439203 .036067985        0.0   12.74046   2.255268   2.222092    10.1857   10.03587    .221415
                         440.    .044609    .024103    .190463    .423137   1.278382     .01162    .007711   33077.85   661.5571
                          1.0        1.0        1.0        0.0        0.0
  18000      .018  2758.58543 3119.92334 -5878.5088 2758.58543 3119.92334 -5878.5088 346791.265 -391603.09 44811.8232        0.0
                          0.0        0.0 2758.00594 3119.32148 -5877.3274 346793.795 -391601.04 44807.2448 -361.31554 8996.64891
                   -8635.3334 -361.33791  8998.4321 -8637.0942 738394.352 -436414.91 -301979.44 .416605895 -.34676558 -.06984031
                    .31733013 -.29761525 -.01971533        0.0   12.74046   2.255268   2.222092    10.1857   10.03587    .221415
                         440.    .044609    .024103    .190463    .423137   1.278382     .01162    .007711   33077.85   661.5571
                          1.0        1.0        1.0        0.0        0.0
  18500     .0185  1911.90639 3861.59449 -5773.5009 1911.90639 3861.59449 -5773.5009 381937.584 -359507.78 -22429.802        0.0
                          0.0        0.0 1911.49492 3860.84116 -5772.3361 381939.485 -359505.12 -22434.368 -1949.3462 9633.17724
                    -7683.831 -1949.6881 9635.09536 -7685.4073 741445.366 -337077.98 -404367.39 .436487934 -.29856171 -.13792623
                   .338522582 -.26351023 -.07501213        0.0   12.74046   2.255268   2.222092    10.1857   10.03587    .221415
                         440.    .044609    .024103    .190463    .423137   1.278382     .01162    .007711   33077.85   661.5571
                          1.0        1.0        1.0        0.0        0.0
  19000      .019  1018.14941 4508.18059   -5526.33 1018.14941 4508.18059   -5526.33 407679.333  -318560.2 -89119.132        0.0
                          0.0        0.0 1017.91618 4507.29428 -5525.2105 407680.557 -318556.98 -89123.572 -3489.3781 10032.5047
                   -6543.1266 -3490.0312 10034.5106 -6544.4794 726239.534 -229441.07 -496798.46 .445622241 -.24300627 -.20261597
                   .351379513  -.2229165  -.1284629        0.0   12.74046   2.255268   2.222092    10.1857   10.03587    .221415
                         440.    .044609    .024103    .190463    .423137   1.278382     .01162    .007711   33077.85   661.5571
                          1.0        1.0        1.0        0.0        0.0
  19500     .0195  99.3220351 5043.76029 -5143.0823 99.3220351 5043.76029 -5143.0823 423382.663 -269768.61 -153614.05        0.0
                          0.0        0.0 99.2728625 5042.76276 -5142.0356  423383.18 -269764.92 -153618.26 -4943.4899 10184.7984
                   -5241.3085 -4944.4383 10186.8426 -5242.4044 693151.274 -116154.56 -576996.72 .443783885 -.18146724 -.26231665
                   .355584193 -.17683411 -.17875081        0.0   12.74046   2.255268   2.222092    10.1857   10.03587    .221415
                         440.    .044609    .024103    .190463    .423137   1.278382     .01162    .007711   33077.85   661.5571
                          1.0        1.0        1.0        0.0        0.0
  20000       .02  -821.95103 5455.14566 -4633.1946 -821.95103 5455.14566 -4633.1946 428660.907 -214334.42 -214326.48        0.0
                          0.0        0.0 -821.81487 5454.06142 -4632.2466 428660.705 -214330.35 -214330.35 -6275.8763  10086.308
                   -3810.4317 -6277.0967 10088.3403 -3811.2436 642995.329 -7.9368677 -642987.39  .43101809 -.11545988 -.31555821
                    .35103329 -.12639685 -.22463621        0.0   12.74046   2.255268   2.222092    10.1857   10.03587    .221415
                         440.    .044609    .024103    .190463    .423137   1.278382     .01162    .007711   33077.85   661.5571
                          1.0        1.0        1.0        0.0        0.0
  20500     .0205  -1722.9851 5732.20697 -4009.2219 -1722.9851 5732.20697 -4009.2219 423384.096 -153622.61 -269761.49        0.0
                          0.0        0.0 -1722.6669 5731.06269 -4008.3958  423383.18 -153618.26 -269764.92 -7453.7296 9739.45852
                    -2285.729  -7455.192 9741.42888 -2286.2369 577006.704  116138.88 -693145.58 .407639161 -.04660949 -.36102967
                   .337838604  -.0728472 -.26499118        0.0   12.74046   2.255268   2.222092    10.1857   10.03587    .221415
                         440.    .044609    .024103    .190463    .423137   1.278382     .01162    .007711   33077.85   661.5571
                          1.0        1.0        1.0        0.0        0.0
  21000      .021  -2581.5938 5868.12209 -3286.5283 -2581.5938 5868.12209 -3286.5283 407682.164 -89128.096 -318554.07        0.0
                          0.0        0.0 -2581.1013 5866.94591 -3285.8446 407680.557 -89123.572 -318556.98 -8448.0473 9152.79048
                   -704.74323 -8449.7159 9154.65041 -704.93456  496810.26 229425.972 -726236.23 .374222768 .023388603 -.39761137
                   .316325555 -.01750486 -.29882069        0.0   12.74046   2.255268   2.222092    10.1857   10.03587    .221415
[...]
                         440.    .044609    .024103    .190463    .423137   1.278382     .01162    .007711   33077.85   661.5571
                          1.0        1.0        1.0        0.0        0.0
 113000      .113  -254346.84 -171784.43  426131.27 -254346.84 -171784.43  426131.27 -254346.84 -171784.43 426131.271        0.0
                          0.0        0.0 -254588.24  -171687.9 426276.136 -251960.44 -174352.02 426312.457 -82900.342 -597964.03
                   680864.374 -82562.401 -597915.71 680478.106 -82562.401 -597915.71 680478.106 -62.579383 49.6516311 12.9277527
                   -36.442235 31.5017075 4.94058576        0.0   12.74046   2.255268   2.222092    10.1857   10.03587    .221415
                         440.    .044609    .024103    .190463    .423137   1.278382     .01162    .007711   33077.85   661.5571
                          1.0        1.0        1.0        0.0        0.0
 113500     .1135   -197119.1 -230887.96 428007.061  -197119.1 -230887.96 428007.061  -197119.1 -230887.96 428007.061        0.0
                          0.0        0.0 -198960.12 -229250.04 428210.162 -194607.89 -233465.35  428073.24 30289.9229 -657460.21
                   627170.282 33768.8683 -658895.03 625126.158 33768.8681 -658895.03 625126.158 -62.321006 44.7793849 17.5416215
                   -38.448407  29.467172 8.98123503        0.0   12.74046   2.255268   2.222092    10.1857   10.03587    .221415
                         440.    .044609    .024103    .190463    .423137   1.278382     .01162    .007711   33077.85   661.5571
                          1.0        1.0        1.0        0.0        0.0
 114000      .114  -135255.88 -284128.91 419384.793 -135255.88 -284128.91 419384.793 -135255.88 -284128.91 419384.793        0.0
                          0.0        0.0 -137233.78  -282180.4  419414.18 -132463.44   -286830.  419293.44 144946.615 -701594.58
                   556647.962 148873.036 -703513.71 554640.672 148873.036 -703513.71 554640.672 -61.161893 39.1747583  21.987135
                   -39.881003 26.9051832 12.9758201        0.0   12.74046   2.255268   2.222092    10.1857   10.03587    .221415
                         440.    .044609    .024103    .190463    .423137   1.278382     .01162    .007711   33077.85   661.5571
                          1.0        1.0        1.0        0.0        0.0
 114500     .1145  -70282.776 -330067.57 400350.348 -70282.776 -330067.57 400350.348 -70282.776 -330067.57 400350.348        0.0
                          0.0        0.0 -70887.607 -329335.87 400223.478 -67057.308 -333131.94 400189.244 258448.264 -729559.35
                   471111.085 259784.796 -730417.92 470633.124 259784.796 -730417.92 470633.125 -59.092306 32.9081717 26.1841343
                   -40.703656 23.8781742 16.8254668        0.0   12.74046   2.255268   2.222092    10.1857   10.03587    .221415
                         440.    .044609    .024103    .190463    .423137   1.278382     .01162    .007711   33077.85   661.5571
                          1.0        1.0        1.0        0.0        0.0
 115000      .115  -2995.3723 -368286.56 371281.931 -2995.3723 -368286.56 371281.931 -2995.3724 -368286.56 371281.931        0.0
                          0.0        0.0 -2482.1429 -368733.29 371215.435 .127058E-4 -371231.06  371231.06  366251.15 -739948.73
                   373697.578 365291.186 -739568.49 374277.303 365291.186 -739568.49 374277.303 -56.390152 26.2596647 30.1304878
                   -40.894744 20.4600672 20.4347351        0.0   12.74046   2.255268   2.222092    10.1857   10.03587    .221415
                         440.    .044609    .024103    .190463    .423137   1.278382     .01162    .007711   33077.85   661.5571
                          1.0        1.0        1.0        0.0        0.0
 115500     .1155  65430.0172 -398395.25  332965.23 65430.0172 -398395.25  332965.23 65430.0171 -398395.25  332965.23        0.0
                          0.0        0.0 65567.5469 -398634.37 333066.819 67057.3081 -400189.24 333131.936 464201.913 -731701.19
                   267499.272 463825.264 -731360.48 267535.212 463825.264 -731360.48 267535.212 -53.755352 19.9224371 33.8329147
                   -40.448015 16.7339801 23.7140935        0.0   12.74046   2.255268   2.222092    10.1857   10.03587    .221415
                         440.    .044609    .024103    .190463    .423137   1.278382     .01162    .007711   33077.85   661.5571
                          1.0        1.0        1.0        0.0        0.0
 116000      .116  132718.238  -419213.8 286495.566 132718.238  -419213.8 286495.566 132718.238  -419213.8 286495.566        0.0
                          0.0        0.0 131847.301 -418458.34 286611.036 132463.443 -419293.44 286829.997 550305.638 -705069.37
                   154763.735 551932.043 -705709.37 153777.328 551932.042 -705709.37 153777.328 -51.806378  14.582487 37.2238906
                   -39.372968 12.7907215 26.5822174        0.0   12.74046   2.255268   2.222092    10.1857   10.03587    .221415
                         440.    .044609    .024103    .190463    .423137   1.278382     .01162    .007711   33077.85   661.5571
                          1.0        1.0        1.0        0.0        0.0
 116500     .1165  196179.664 -429253.85 233074.189 196179.664 -429253.85 233074.189 196179.664 -429253.85 233074.189        0.0
                          0.0        0.0 195396.129 -428384.99 232988.858 194607.888 -428073.24 233465.353 623781.116 -661373.84
                   37592.7288 625433.518 -662328.04 36894.5247 625433.518 -662328.04 36894.5249 -50.552831 10.3848634 40.1679677
                   -37.694899 8.72682846 28.9680702        0.0   12.74046   2.255268   2.222092    10.1857   10.03587    .221415
                         440.    .044609    .024103    .190463    .423137   1.278382     .01162    .007711   33077.85   661.5571
                          1.0        1.0        1.0        0.0        0.0
 117000      .117  253951.831 -427885.81 173933.977 253951.831 -427885.81 173933.977 253951.831 -427885.81 173933.977        0.0
                          0.0        0.0 254598.216 -428255.49 173657.269 251960.441 -426312.46 174352.016 682853.701 -601912.75
                   -80940.947 681837.639 -601819.79 -80017.854 681837.639 -601819.79 -80017.853  -49.50179 6.95717465 42.5446152
                   -35.454302 4.64201998 30.8122825        0.0   12.74046   2.255268   2.222092    10.1857   10.03587    .221415
                         440.    .044609    .024103    .190463    .423137   1.278382     .01162    .007711   33077.85   661.5571
                          1.0        1.0        1.0        0.0        0.0
 117500     .1175  305242.245 -415690.06 110447.819 305242.245 -415690.06 110447.819 305242.244 -415690.06 110447.819        0.0
                          0.0        0.0 307075.886 -417281.35 110205.463 303108.891 -414054.45 110945.554 724357.235 -527486.81
                   -196870.42 720932.308 -526137.88 -194794.43 720932.308 -526137.88 -194794.43 -48.239933 3.94129236 44.2986406
                   -32.705442 .636497275 32.0689594        0.0   12.74046   2.255268   2.222092    10.1857   10.03587    .221415
                         440.    .044609    .024103    .190463    .423137   1.278382     .01162    .007711   33077.85   661.5571
                          1.0        1.0        1.0        0.0        0.0
 118000      .118  349356.465 -393583.28 44226.8113 349356.465 -393583.28 44226.8113 349356.464 -393583.28 44226.8114        0.0
                          0.0        0.0 350790.728 -394966.73 44176.0035 346793.795 -391601.04 44807.2447  745757.46 -439142.74
                   -306614.72  742939.74 -437810.09 -305129.65  742939.74 -437810.09 -305129.65 -46.742793 1.34452106 45.3982717
                   -29.514855 -3.1917004 32.7065697        0.0   12.74046   2.255268   2.222092    10.1857   10.03587    .221415
                         440.    .044609    .024103    .190463    .423137   1.278382     .01162    .007711   33077.85   661.5571
                          1.0        1.0        1.0        0.0        0.0
 118500     .1185  384883.159 -361912.76   -22970.4 384883.159 -361912.76   -22970.4 384883.159 -361912.76   -22970.4        0.0
                          0.0        0.0 384957.298 -362031.98  -22925.32 381939.485 -359505.12 -22434.368 746989.275 -339106.66
                   -407882.62 746795.918 -338942.36 -407853.56 746795.918 -338942.36 -407853.56  -45.06232 -.70452102 45.7668406
                   -25.959942 -6.7489577 32.7089141        0.0   12.74046   2.255268   2.222092    10.1857   10.03587    .221415
                         440.    .044609    .024103    .190463    .423137   1.278382     .01162    .007711   33077.85   661.5571
                          1.0        1.0        1.0        0.0        0.0
 119000      .119  410155.654 -320709.81 -89445.845 410155.654 -320709.81 -89445.845 410155.654 -320709.81 -89445.845        0.0
                          0.0        0.0 409632.413 -320131.86 -89500.556 407680.557 -318556.98 -89123.572 729764.271  -230631.3
                   -499132.97 730865.464 -231263.96  -499601.5 730865.463 -231263.96  -499601.5 -42.883864 -2.4054552 45.2893189
                   -22.127375 -9.9480601   32.07545        0.0   12.74046   2.255268   2.222092    10.1857   10.03587    .221415
                         440.    .044609    .024103    .190463    .423137   1.278382     .01162    .007711   33077.85   661.5571
                          1.0        1.0        1.0        0.0        0.0
 119500     .1195  424391.349 -270727.02 -153664.33 424391.349 -270727.02 -153664.33 424391.349 -270727.02 -153664.33        0.0
                          0.0        0.0 424584.431  -270748.7 -153835.73  423383.18 -269764.92 -153618.26  695333.13 -116912.97
                   -578420.16 695118.371 -117062.69 -578055.68 695118.371 -117062.69 -578055.68 -39.609567 -4.2854723 43.8950394
                    -18.11071 -12.710611 30.8213204        0.0   12.74046   2.255268   2.222092    10.1857   10.03587    .221415
                         440.    .044609    .024103    .190463    .423137   1.278382     .01162    .007711   33077.85   661.5571
                          1.0        1.0        1.0        0.0        0.0
  % % % % % %   Suspended simulation;  plot data space exhausted;  SPY SPACE is required.   LIMBUF =  840000.
  % % % % % %   Suspended simulation;  plot data space exhausted;  SPY SPACE is required.   LIMBUF =  840000.
  +++  Time-sharing disabled.   Send  user-keyed interrupt to silence alarm.
   Current values.  INDBUF  INDBEG  LIMBUF  MFLUSH  NUMDCD  KCARD1  KCARD2
                    839994      50  840000    1007     230       1     231
Plot timespan now in memory (in sec) = 1.04985997E-01   1.19985000E-01
   ++++  Begin plot-data copy from memory to disk.   MFLUSH, INDBUF, N4, Tbeg,  Tend = 1008  839994       1  -1.00000E+00
1.00000E+19
 120000       .12  428015.385 -213846.43 -214168.95 428015.385 -213846.43 -214168.95 428015.385 -213846.43 -214168.95        0.0
                          0.0        0.0  428955.68 -214693.77 -214261.91 428660.705 -214330.35 -214330.35 643649.447 -431.85517
                   -643217.59 641861.818 322.517577 -642184.34 641861.818 322.517481 -642184.34 -34.913908 -6.7029173 41.6168246
                   -14.007934 -14.968876 28.9768107        0.0   12.74046   2.255268   2.222092    10.1857   10.03587    .221415
                         440.    .044609    .024103    .190463    .423137   1.278382     .01162    .007711   33077.85   661.5571
                          1.0        1.0        1.0        0.0        0.0

Extrema of output variables follow.   Order and column positioning are the same as for the preceding time-step loop output.
Variable maxima :  449001.226 441759.111 434985.969 449001.226 441759.111 434985.969 449001.226 470901.681 434985.969        0.0
                          0.0        0.0 452091.899 458987.785 434938.257 428660.705 428660.703 428660.703 791644.715 961015.573
                   761965.268 779799.099 908899.202 757686.157 779799.099 984677.212 757686.158 57.4027823 405.316352 118.459016
                   9.90710006 38.1089205 35.9909794        0.0   12.74046   2.255268   2.222092    10.1857   10.03587    .221415
                         440.    .044609    .024103    .190463    .423137   1.278382     .01162    .007711   33077.85   661.5571
                          1.0        1.0        1.0        0.0        0.0
Times of maxima :     .060101      .0665    .053296    .060101      .0665    .053296    .060101    .044834    .053296        0.0
                          0.0        0.0    .060138    .044887    .053247        0.0    .006667    .113333    .058235    .044887
                      .071628    .058251    .044847    .052351    .058251    .044834    .052351    .044709    .044716    .044963
                      .104966    .051387    .058211        0.0        0.0        0.0        0.0        0.0        0.0        0.0
                          0.0        0.0        0.0        0.0        0.0        0.0        0.0        0.0        0.0        0.0
                          0.0        0.0        0.0        0.0        0.0
Variable minima :  -442836.84 -448630.78 -477153.35 -442836.84 -448630.78 -477153.35 -442836.84 -448630.78 -513788.88        0.0
                          0.0        0.0 -445711.95 -453010.59 -502092.43 -428660.71  -428660.7  -428660.7 -778260.49 -767969.59
                   -769568.76 -770027.84 -762703.99 -762916.87 -770027.84 -762703.99 -762916.87  -126.6897  -80.10441 -461.96659
                    -47.90736 -17.227087 -18.548344        0.0   12.74046   2.255268   2.222092    10.1857   10.03587    .221415
                         440.    .044609    .024103    .190463    .423137   1.278382     .01162    .007711   33077.85   661.5571
                          1.0        1.0        1.0        0.0        0.0
Times of minima :     .069767    .056346    .044846    .069767    .056346    .044846    .069767    .056346    .044833        0.0
                          0.0        0.0    .070212    .056795    .044886        .01    .016667    .103333    .068361    .054949
                       .06151    .068334    .054901    .061522    .068334    .054901    .061522    .054574    .044964    .044715
                      .054843    .101628    .108285        0.0        0.0        0.0        0.0        0.0        0.0        0.0
                          0.0        0.0        0.0        0.0        0.0        0.0        0.0        0.0        0.0        0.0
                          0.0        0.0        0.0        0.0        0.0

Blank card terminating all plot cards.            |BLANK PLOT

Memory storage figures for the preceding, now-completed data case.  -------------------------------  Present   Program
A value of  "-9999"  indicates that no figure is available.         28-Feb-22  19:25:10              figure     limit  (name)
     Size List 1.   Number of electric network nodes.                                                   37      6000  (LBUS)
     Size List 2.   Number of electric network branches.                                                39     10000  (LBRNCH)
     Size List 3.   Number of data values in R, L, C tables.                                            45    192000  (LDATA)
     Size List 4.   Number of electric network sources.                                                  3       900  (LEXCT)
     Size List 5.   Storage for [Y] and triangularized [Y].   No. times =    3     Factors =    66     189    420000  (LYMAT)
     Size List 6.   Number of entries in switch table.                  No. flops = 18                  21      1200  (LSWTCH)
     Size List 7.   Number of distinct ALPHANUMERIC data names plus program SPY variables.              25     15000  (LSIZE7)
     Size List 8.   History points of distributed lines.                                               177    120000  (LPAST)
     Size List 9.   Number of nonlinear elements.                                                        0      2250  (LNONL)
     Size List 10.  Points of nonlinear characteristics.                                                 0      3800  (LCHAR)
     Size List 11.  Number of Type-59 S.M. outputs.                                                      0       720  (LSMOUT)
     Size List 12.  Total number of EMTP output variables.                                              55      2000  (LSIZ12)
     Size List 13.  Working space for batch/SPY plotting.                                            -9999     72800  (LSIZ13)
     Size List 14.  S.M./U.M. connections to TACS.                                                   -9999       510  (LBSTAC)
     Size List 15.  Character storage in bytes for MODELS.                                            3295     90000  (LCTACS)
     Size List 16.  Total number of Type-59 S.M. masses.                                                 0       800  (LIMASS)
     Size List 17.  Number of Type-59 Synchronous machines.                                              0        90  (LSYN)
     Size List 18.  Branch and switch power/energy outputs.                                              0       254  (MAXPE)
     Size List 19.  Total floating-point TACS table space.                                              23    120000  (LTACST)
     Size List 20.  Non-copied recursive convolution data.                                               0    100000  (LFSEM)
     Size List 21.  Total modal/phase [T] matrix storage.                                                9      3000  (LFD)
     Size List 22.  Total recursive convolution history.                                                 0     15000  (LHIST)
     Size List 23.  Giant vectors for renumbering, phasors;  also extrema accumulation.                  93    192000  (LSIZ23)
     Size List 24.  Peak phases of compensation for data.                                                0       120  (LCOMP)
     Size List 25.  Total table space for all U.M usage.                                             -9999     45000  (LSPCUM)
     Size List 26.  Square of max number of coupled phases.                                              9    260000  (LSIZ26)
     Size List 27.  Maximum number of MODELS top variables.                                             44       600  (LSIZ27)
     Size List 28.  MODELS.  Total work space is divided into INTEGER and REAL.  1st, REAL:           1780    210000  (LRTACS)
                             Second  and last,  statistics for INTEGER work space.                    6838         0  (LITACS)
     Size List 29.  RAM disk used by "TAPSAV" table saving (limit is "LABCOM" size LTLABL).          -9999       600  (LSIZ29)
     Size List 30.  Taku Noda frequency-dependent circuits.                                              0        19  (LSIZ30)
Timing figures characterizing central processor (CP) solution speed.  ----------------------------   CP sec  Wait sec  Real sec
     Data input time (through blank card ending branches) ....                                       0.016     0.000     0.016
     Node renumbering and phasor solution  ....                                                      0.000     0.000     0.000
     After phasor solution, but before time-step loop  ....                                          0.000     0.000     0.000
     Integration of equations (time-step loop)  ....                                                 1.188     0.000     1.188
     Plotting or STATISTICS termination overlays ....                                                0.000     0.000     0.000
                                                                                                    ---------------------------
                                                                                          Totals      1.203     0.000     1.203

