   ---   236   cards of disk file read into card cache cells  1   onward.
 Comment card is ignored.      |C   LBUS  LBRNCH   LDATA   LEXCT   LYMAT  LSWTCH
 Limit CIDEAL cards =   200    |CARDS        200 { Limit of CIDEAL will be 2 mor
 1st card (Lists  1-10).       |    6000   10000  192000     900  420000    120
 Comment card is ignored.      |C LSMOUT  LSIZ12  LSIZ13  LBSTAC  LCTACS  LIMASS
 2nd card (Lists 11-20).       |     720    2000   72800     510   90000     80
 Comment card is ignored.      |C    LFD   LHIST  LSIZ23   NCOMP  LSPCUM  LSIZ26
 3rd card (Lists 21-30).       |    3000   15000  192000     120   45000  26000
 4th card (Lists 31-32).       |     200     300     { Optional card for Lists
 Comment card is ignored.      |C  LWORK  LMARTI
 Supplemental offsets.         |  840000     742
 <===> Done with  "/"-card sorting by data class.    Remember that the source file appears different from interpreted input data.
Alternative Transients Program (ATP),  GNU Linux or DOS.  All rights reserved by Can/Am user group of Portland, Oregon, USA.
 Date (dd-mth-yy) and time of day (hh.mm.ss) = 28-Feb-22  19:44:43   Name of disk plot file is  p\bdfinalisima\energizacion1671.pl4
Consult the 860-page ATP Rule Book of the Can/Am EMTP User Group in Portland,  Oregon, USA.  Source code date is 12 August 2008.
Total size of LABCOM tables = 10913436 INTEGER words.  31 VARDIM  List Sizes follow:  6002  10K  192K  900  420K  1200  15K
  120K  2250  3800  720  2K  72800  510  90K  800  90  254  120K  100K  3K  15K  192K  120  45K  260K  600  210K  1100  60  200
--------------------------------------------------+--------------------------------------------------------------------------------
Descriptive interpretation of input data cards.   |  Input data card images are shown below, all 80 columns, character by character
                                                  0         1         2         3         4         5         6         7         8
                                                  012345678901234567890123456789012345678901234567890123456789012345678901234567890
--------------------------------------------------+--------------------------------------------------------------------------------
Comment card.   NUMDCD = 1.                       |C data:D:\ATP\BDFINALISIMA\ENERGIZACION1671.ATP
Marker card preceding new EMTP data case.         |BEGIN NEW DATA CASE
Comment card.   NUMDCD = 3.                       |C --------------------------------------------------------
Comment card.   NUMDCD = 4.                       |C Generated by ATPDRAW  febrero, lunes 28, 2022
Comment card.   NUMDCD = 5.                       |C A Bonneville Power Administration program
Comment card.   NUMDCD = 6.                       |C by H. K. Høidalen at SEfAS/NTNU - NORWAY 1994-2016
Comment card.   NUMDCD = 7.                       |C --------------------------------------------------------
Comment card.   NUMDCD = 8.                       |C  dT  >< Tmax >< Xopt >< Copt ><Epsiln>
Misc. data.     1.000E-06   1.200E-01   5.000E+01 |   1.E-6     .12     50.
Misc. data.    500    1  0  1  1  0  0  0  0  0   |     500       1       0       1       1       0       0       0       0
  ///  Warning.  Nonzero XOPT or COPT differs from the power frequency of  6.00000000E+01  Hz.   Did the user really want this?
No TACS data,  but MODELS data begins (next).     |MODELS
      Another ordinary MODELS data card.          |OUTPUT
      Another ordinary MODELS data card.          |  AnVol
      Another ordinary MODELS data card.          |  LONG
      Another ordinary MODELS data card.          |  R0F
      Another ordinary MODELS data card.          |  R1F
      Another ordinary MODELS data card.          |  X0F
      Another ordinary MODELS data card.          |  X1F
      Another ordinary MODELS data card.          |  RDIVX
      Another ordinary MODELS data card.          |  RINSER
      Another ordinary MODELS data card.          |  CLOSE1
      Another ordinary MODELS data card.          |  RPpos
      Another ordinary MODELS data card.          |  RPcero
      Another ordinary MODELS data card.          |  LPpos
      Another ordinary MODELS data card.          |  LPcero
      Another ordinary MODELS data card.          |  CPpos
      Another ordinary MODELS data card.          |  CPcero
      Another ordinary MODELS data card.          |  Xp
      Another ordinary MODELS data card.          |  CR
      Another ordinary MODELS data card.          |  SIMET
      Another ordinary MODELS data card.          |  ENC1
      Another ordinary MODELS data card.          |  ENC2
      Another ordinary MODELS data card.          |  ENC1AS
      Another ordinary MODELS data card.          |  ENC2AS
      Another ordinary MODELS data card.          |MODEL DEFAULT
      Another ordinary MODELS data card.          |DATA AnVol,LONG,R0F,R1F,X0F,X1F,RDIVX,RINSER,CLOSE1,RPpos,RPcero,LPpos,LPcero
      Another ordinary MODELS data card.          |OUTPUT o1,o2,o3, o4, o5, o6, o7, o8, o9, o10, o11, o12, o13
      Another ordinary MODELS data card.          |VAR o1,o2,o3, o4, o5, o6, o7, o8, o9, o10, o11, o12, o13
      Another ordinary MODELS data card.          |INIT
      Another ordinary MODELS data card.          |  o1:=AnVol
      Another ordinary MODELS data card.          |  o2:=LONG
      Another ordinary MODELS data card.          |  o3:=R0F
      Another ordinary MODELS data card.          |  o4:=R1F
      Another ordinary MODELS data card.          |  o5:=X0F
      Another ordinary MODELS data card.          |  O6:=X1F
      Another ordinary MODELS data card.          |  o7:=RDIVX
      Another ordinary MODELS data card.          |  o8:=RINSER
      Another ordinary MODELS data card.          |  o9:=CLOSE1
      Another ordinary MODELS data card.          |  o10:=RPpos
      Another ordinary MODELS data card.          |  o11:=RPcero
      Another ordinary MODELS data card.          |  o12:=LPpos
      Another ordinary MODELS data card.          |  o13:=LPcero
      Another ordinary MODELS data card.          |
      Another ordinary MODELS data card.          |ENDINIT
      Another ordinary MODELS data card.          |EXEC
      Another ordinary MODELS data card.          |ENDEXEC
      Another ordinary MODELS data card.          |ENDMODEL
      Another ordinary MODELS data card.          |MODEL DEFAULT1
      Another ordinary MODELS data card.          |DATA CPpos,CPcero,Xp,CR,SIMET,ENC1,ENC2,ENC1AS,ENC2AS
      Another ordinary MODELS data card.          |OUTPUT o1, o2, o3, o4, o5, o6, o7, o8, o9
      Another ordinary MODELS data card.          |VAR o1, o2, o3, o4, o5, o6, o7, o8, o9
      Another ordinary MODELS data card.          |INIT
      Another ordinary MODELS data card.          |  o1:=CPpos
      Another ordinary MODELS data card.          |  o2:=CPcero
      Another ordinary MODELS data card.          |  o3:=Xp
      Another ordinary MODELS data card.          |  o4:=CR
      Another ordinary MODELS data card.          |  o5:=SIMET
      Another ordinary MODELS data card.          |  o6:=ENC1
      Another ordinary MODELS data card.          |  o7:=ENC2
      Another ordinary MODELS data card.          |  o8:=ENC1AS
      Another ordinary MODELS data card.          |  o9:=ENC2AS
      Another ordinary MODELS data card.          |
      Another ordinary MODELS data card.          |ENDINIT
      Another ordinary MODELS data card.          |EXEC
      Another ordinary MODELS data card.          |ENDEXEC
      Another ordinary MODELS data card.          |ENDMODEL
      Another ordinary MODELS data card.          |USE DEFAULT AS DEFAULT
      Another ordinary MODELS data card.          |DATA
      Another ordinary MODELS data card.          |  AnVol:=      0.0
      Another ordinary MODELS data card.          |  LONG:=  343.389
      Another ordinary MODELS data card.          |  R0F:= 2.105418
      Another ordinary MODELS data card.          |  R1F:= 2.086548
      Another ordinary MODELS data card.          |  X0F:= 7.323828
      Another ordinary MODELS data card.          |  X1F:= 7.258188
      Another ordinary MODELS data card.          |  RDIVX:= 0.287475
      Another ordinary MODELS data card.          |  RINSER:=     440.
      Another ordinary MODELS data card.          |  CLOSE1:= 0.057254
      Another ordinary MODELS data card.          |  RPpos:= 0.029963
      Another ordinary MODELS data card.          |  RPcero:= 0.174245
      Another ordinary MODELS data card.          |  LPpos:= 0.421336
      Another ordinary MODELS data card.          |  LPcero:=  0.93657
      Another ordinary MODELS data card.          |OUTPUT
      Another ordinary MODELS data card.          |  AnVol:=o1
      Another ordinary MODELS data card.          |  LONG:=o2
      Another ordinary MODELS data card.          |  R0F:=o3
      Another ordinary MODELS data card.          |  R1F:=o4
      Another ordinary MODELS data card.          |  X0F:=o5
      Another ordinary MODELS data card.          |  X1F:=o6
      Another ordinary MODELS data card.          |  RDIVX:=o7
      Another ordinary MODELS data card.          |  RINSER:=o8
      Another ordinary MODELS data card.          |  CLOSE1:=o9
      Another ordinary MODELS data card.          |  RPpos:=o10
      Another ordinary MODELS data card.          |  RPcero:=o11
      Another ordinary MODELS data card.          |  LPpos:=o12
      Another ordinary MODELS data card.          |  LPcero:=o13
      Another ordinary MODELS data card.          |ENDUSE
      Another ordinary MODELS data card.          |USE DEFAULT1 AS DEF
      Another ordinary MODELS data card.          |DATA
      Another ordinary MODELS data card.          |  CPpos:= 0.009852
      Another ordinary MODELS data card.          |  CPcero:= 0.009312
      Another ordinary MODELS data card.          |  Xp:= 1447.495
      Another ordinary MODELS data card.          |  CR:= 28.94991
      Another ordinary MODELS data card.          |  SIMET:=      0.0
      Another ordinary MODELS data card.          |  ENC1:=      0.0
      Another ordinary MODELS data card.          |  ENC2:=      0.0
      Another ordinary MODELS data card.          |  ENC1AS:=      0.0
      Another ordinary MODELS data card.          |  ENC2AS:=      0.0
      Another ordinary MODELS data card.          |OUTPUT
      Another ordinary MODELS data card.          |  CPpos:=o1
      Another ordinary MODELS data card.          |  CPcero:=o2
      Another ordinary MODELS data card.          |  Xp:=o3
      Another ordinary MODELS data card.          |  CR:=o4
      Another ordinary MODELS data card.          |  SIMET:=o5
      Another ordinary MODELS data card.          |  ENC1:=o6
      Another ordinary MODELS data card.          |  ENC2:=o7
      Another ordinary MODELS data card.          |  ENC1AS:=o8
      Another ordinary MODELS data card.          |  ENC2AS:=o9
      Another ordinary MODELS data card.          |ENDUSE
      Another ordinary MODELS data card.          |RECORD
      Another ordinary MODELS data card.          |  DEFAULT.o1 AS AnVOL
      Another ordinary MODELS data card.          |  DEFAULT.o2 AS LONG
      Another ordinary MODELS data card.          |  DEFAULT.o3 AS R0F
      Another ordinary MODELS data card.          |  DEFAULT.o4 AS R1F
      Another ordinary MODELS data card.          |  DEFAULT.o5 AS X0F
      Another ordinary MODELS data card.          |  DEFAULT.o6 AS X1F
      Another ordinary MODELS data card.          |  DEFAULT.o7 AS RDIVX
      Another ordinary MODELS data card.          |  DEFAULT.o8 AS RINSER
      Another ordinary MODELS data card.          |  DEFAULT.o9 AS CLOSE1
      Another ordinary MODELS data card.          |  DEFAULT.o10 AS RPpos
      Another ordinary MODELS data card.          |  DEFAULT.o11 AS RPcero
      Another ordinary MODELS data card.          |  DEFAULT.o12 AS LPpos
      Another ordinary MODELS data card.          |  DEFAULT.o13 AS LPcero
      Another ordinary MODELS data card.          |  DEF.o1 AS CPpos
      Another ordinary MODELS data card.          |  DEF.o2 AS CPcero
      Another ordinary MODELS data card.          |  DEF.o3 AS Xp
      Another ordinary MODELS data card.          |  DEF.o4 AS CR
      Another ordinary MODELS data card.          |  DEF.o5 AS SIMET
      Another ordinary MODELS data card.          |  DEF.o6 AS ENC1
      Another ordinary MODELS data card.          |  DEF.o7 AS ENC2
      Another ordinary MODELS data card.          |  DEF.o8 AS ENC1AS
      Another ordinary MODELS data card.          |  DEF.o9 AS ENC2AS
Termination of data for Laurent Dube`s MODELS.    |ENDMODELS
Comment card.   NUMDCD = 153.                     |C        1         2         3         4         5         6         7         8
Comment card.   NUMDCD = 154.                     |C 345678901234567890123456789012345678901234567890123456789012345678901234567890
Optional blank card follows last of MODELS data.  |BLANK MODELS
Comment card.   NUMDCD = 156.                     |C < n1 >< n2 ><ref1><ref2>< R  >< L  >< C  >
Comment card.   NUMDCD = 157.                     |C < n1 >< n2 ><ref1><ref2>< R  >< A  >< B  ><Leng><><>0
1st of coupled R-L.   2.10540E+00  2.33125E-02    |51IFUENASB1A              2.10547.3238277159
2nd coil. 2.087E+00 2.310E-02 0.000E+00 0.000E+00 |52IFUENBSB1B              2.08657.2581876974
Zca, Zcc= 6.300E-03 6.965E-05 2.093E+00 2.317E-02 |53IFUENCSB1C
Series R-L-C.   1.000E+09  0.000E+00  0.000E+00   |  SB1A                      1.E9                                               0
Series R-L-C.   1.000E+09  0.000E+00  0.000E+00   |  SB1B                      1.E9                                               0
Series R-L-C.   1.000E+09  0.000E+00  0.000E+00   |  SB1C                      1.E9                                               0
Series R-L-C.   1.000E+09  0.000E+00  0.000E+00   |  RSNSHA                    1.E9                                               0
Series R-L-C.   1.000E+09  0.000E+00  0.000E+00   |  RSNSHB                    1.E9                                               0
Series R-L-C.   1.000E+09  0.000E+00  0.000E+00   |  RSNSHC                    1.E9                                               0
Series R-L-C.   1.000E+09  0.000E+00  0.000E+00   |  RSNNHA                    1.E9                                               0
Series R-L-C.   1.000E+09  0.000E+00  0.000E+00   |  RSNNHB                    1.E9                                               0
Series R-L-C.   1.000E+09  0.000E+00  0.000E+00   |  RSNNHC                    1.E9                                               0
Series R-L-C.   1.000E+09  0.000E+00  0.000E+00   |  SE2A                      1.E9                                               0
Series R-L-C.   1.000E+09  0.000E+00  0.000E+00   |  SE2B                      1.E9                                               0
Series R-L-C.   1.000E+09  0.000E+00  0.000E+00   |  SE2C                      1.E9                                               0
Series R-L-C.   2.500E+02  0.000E+00  3.000E-10   |  X0001B                    250.       .0003                                   0
Series R-L-C.   2.500E+02  0.000E+00  3.000E-10   |  X0002B                    250.       .0003                                   0
Series R-L-C.   1.000E-06  0.000E+00  0.000E+00   |  X0001ALN1A               1.E-6                                               0
Series R-L-C.   1.000E-06  0.000E+00  0.000E+00   |  SB1A  X0002A             1.E-6                                               0
Series R-L-C.   1.000E-06  0.000E+00  0.000E+00   |  X0001BLN1B               1.E-6                                               0
Series R-L-C.   1.000E-06  0.000E+00  0.000E+00   |  SB1B  X0002B             1.E-6                                               0
Series R-L-C.   1.000E-06  0.000E+00  0.000E+00   |  X0001CLN1C               1.E-6                                               0
Series R-L-C.   1.000E-06  0.000E+00  0.000E+00   |  SB1C  X0002C             1.E-6                                               0
Series R-L-C.   4.400E+02  0.000E+00  0.000E+00   |  XX0005X0002A              440.                                               0
Series R-L-C.   4.400E+02  0.000E+00  0.000E+00   |  XX0003X0002B              440.                                               0
Series R-L-C.   4.400E+02  0.000E+00  0.000E+00   |  XX0004X0002C              440.                                               0
Series R-L-C.   2.500E+02  0.000E+00  3.000E-10   |  X0001A                    250.       .0003                                   0
Series R-L-C.   1.000E+06  0.000E+00  0.000E+00   |  X0001AX0002A              1.E6                                               0
Series R-L-C.   1.000E+06  0.000E+00  0.000E+00   |  X0001BX0002B              1.E6                                               0
Series R-L-C.   1.000E+06  0.000E+00  0.000E+00   |  X0001CX0002C              1.E6                                               0
Series R-L-C.   2.500E+02  0.000E+00  3.000E-10   |  X0002C                    250.       .0003                                   0
Series R-L-C.   2.500E+02  0.000E+00  3.000E-10   |  X0002A                    250.       .0003                                   0
Series R-L-C.   2.500E+02  0.000E+00  3.000E-10   |  X0001C                    250.       .0003                                   0
Series R-L-C.   1.250E+02  0.000E+00  6.000E-10   |  X0001AX0002A              125.       .0006                                   0
Series R-L-C.   1.250E+02  0.000E+00  6.000E-10   |  X0001BX0002B              125.       .0006                                   0
Series R-L-C.   1.250E+02  0.000E+00  6.000E-10   |  X0001CX0002C              125.       .0006                                   0
 1.742E-01 9.366E-01 9.310E-03 5.659E+02 1.809E-03|-1LN1A  VFF2A             .17425.93657.00931343.39 0 0                         0
 2.996E-02 4.213E-01 9.850E-03 3.690E+02 1.248E-03|-2LN1B  VFF2B             .02996.42134.00985343.39 0 0                         0
3rd or later transposed distributed phase.        |-3LN1C  VFF2C                                                                  0
Blank card ending branches.  IBR, NTOT = 39  31   |BLANK BRANCH
Comment card.   NUMDCD = 198.                     |C < n 1>< n 2>< Tclose ><Top/Tde ><   Ie   ><Vf/CLOP ><  type  >
Switch.  -1.00E+00  1.00E+01  0.00E+00  0.00E+00  |  LN1A  COMPA        -1.       10.                                             0
Switch.  -1.00E+00  1.00E+01  0.00E+00  0.00E+00  |  LN1B  COMPB        -1.       10.                                             0
Switch.  -1.00E+00  1.00E+01  0.00E+00  0.00E+00  |  LN1C  COMPC        -1.       10.                                             0
Switch.  -1.00E+00  1.00E+01  0.00E+00  0.00E+00  |  VFF2A RSNNHA       -1.       10.                                             0
Switch.  -1.00E+00  1.00E+01  0.00E+00  0.00E+00  |  VFF2B RSNNHB       -1.       10.                                             0
Switch.  -1.00E+00  1.00E+01  0.00E+00  0.00E+00  |  VFF2C RSNNHC       -1.       10.                                             0
Switch.   2.00E+00 -1.00E+00  0.00E+00  0.00E+00  |  VFF2A SE2A          2.       -1.                                             0
Switch.   2.00E+00 -1.00E+00  0.00E+00  0.00E+00  |  VFF2B SE2B          2.       -1.                                             0
Switch.   2.00E+00 -1.00E+00  0.00E+00  0.00E+00  |  VFF2C SE2C          2.       -1.                                             0
Switch.   5.73E-02  1.00E+03  0.00E+00  0.00E+00  |  X0001BXX0003.057253588      1.E3                                             0
Switch.   5.73E-02  1.00E+03  0.00E+00  0.00E+00  |  X0001CXX0004.057253588      1.E3                                             0
Switch.   6.48E-02  1.00E+03  0.00E+00  0.00E+00  |  XX0005X0002A.064753588      1.E3                                             0
Switch.   6.48E-02  1.00E+03  0.00E+00  0.00E+00  |  XX0003X0002B.064753588      1.E3                                             0
Switch.   6.48E-02  1.00E+03  0.00E+00  0.00E+00  |  XX0004X0002C.064753588      1.E3                                             0
Switch.   5.73E-02  1.00E+03  0.00E+00  0.00E+00  |  X0001AXX0005.057253588      1.E3                                             0
Permanently-closed switch used for metering.      |  VFUENAIFUENA                                        MEASURING                1
Permanently-closed switch used for metering.      |  VFUENBIFUENB                                        MEASURING                1
Permanently-closed switch used for metering.      |  VFUENCIFUENC                                        MEASURING                1
Permanently-closed switch used for metering.      |  COMPA RSNSHA                                        MEASURING                1
Permanently-closed switch used for metering.      |  COMPB RSNSHB                                        MEASURING                1
Permanently-closed switch used for metering.      |  COMPC RSNSHC                                        MEASURING                1
Blank card ending switches.   KSWTCH = 21.        |BLANK SWITCH
Comment card.   NUMDCD = 221.                     |C < n 1><>< Ampl.  >< Freq.  ><Phase/T0><   A1   ><   T1   >< TSTART >< TSTOP  >
Source.   4.29E+05  5.00E+01  0.00E+00 -1.00E+00  |14VFUENA  428660.705       50.                                     -1.      100.
Source.   4.29E+05  5.00E+01 -1.20E+02 -1.00E+00  |14VFUENB  428660.705       50.     -120.                           -1.      100.
Source.   4.29E+05  5.00E+01 -2.40E+02 -1.00E+00  |14VFUENC  428660.705       50.     -240.                           -1.      100.
Blank card ends electric sources.  KCONST = 3     |BLANK SOURCE
Pi-equivalent branches of distributed circuits are added to the table of List Size 3 between indices  40   and  45.

Sinusoidal steady-state phasor solution, branch by branch.   All flows are away from a bus,  and the real part,  magnitude,  or  "P"
is printed above the imaginary part,  the angle,  or  "Q".   The first solution frequency  =  5.00000000E+01  Hertz.
  Bus K                        Phasor  node  voltage              Phasor  branch  current               Power flow       Power loss
             Bus M         Rectangular            Polar          Rectangular            Polar            P  and  Q        P  and  Q

 IFUENA                    428660.705       428660.705      .42893389462846    .445827876222      91933.552834916  .20735897313475
                                  0.0              0.0      .12156565820775       15.8234460      -26055.21037556        0.7213277

            SB1A      428660.69237579  428660.69238902      -.4289338946285    .445827876222      -91933.34547594
                      -3.366929462841       -0.0004500      -.1215656582077     -164.1765540       26055.93170331

 IFUENB                  -214330.3525       428660.705      -.1091879990737  .44582787621645      91933.552833561  .20735897312956
                      -371231.0601341     -120.0000000      -.4322504783918     -104.1765540      -26055.21037598        0.7213277

            SB1B      -214333.2620343  428660.69238902      .10918799907371  .44582787621645      -91933.34547459
                      -371229.3657365     -120.0004500      .43225047839181       75.8234460      26055.931703725

 IFUENC                  -214330.3525       428660.705      -.3197458955521  .44582787622097      91933.552834456  .20735897313379
                      371231.06013415      120.0000000      .31068482018482      135.8234460      -26055.21037637        0.7213277

            SB1C      -214327.4303414  428660.69238902      .31974589555212  .44582787622097      -91933.34547548
                        371232.732666      119.9995500      -.3106848201848      -44.1765540      26055.931704121

 SB1A                 428660.69237579  428660.69238902      .42866069238E-3  .42866069239E-3      91.874994599716  91.874994599716
                      -3.366929462841       -0.0004500      -.3366929463E-8       -0.0004500      .6935082256E-20        0.0000000

            TERRA                 0.0              0.0      -.4286606924E-3  .42866069239E-3                  0.0
                                  0.0              0.0      .33669294628E-8      179.9995500                  0.0

 SB1B                 -214333.2620343  428660.69238902       -.214333262E-3  .42866069239E-3      91.874994599716  91.874994599716
                      -371229.3657365     -120.0004500      -.3712293657E-3     -120.0004500      .3122502257E-14        0.0000000

            TERRA                 0.0              0.0      .21433326203E-3  .42866069239E-3                  0.0
                                  0.0              0.0      .37122936574E-3       59.9995500                  0.0

 SB1C                 -214327.4303414  428660.69238902      -.2143274303E-3  .42866069239E-3      91.874994599716  91.874994599716
                        371232.732666      119.9995500      .37123273267E-3      119.9995500      -.756339436E-15        0.0000000

            TERRA                 0.0              0.0      .21432743034E-3  .42866069239E-3                  0.0
                                  0.0              0.0      -.3712327327E-3      -60.0004500                  0.0

 RSNSHA               74.097338666699  389.15778075195      .74097338667E-7  .38915778075E-6       .7572188916E-4   .7572188916E-4
                      -382.0384309494      -79.0236168      -.3820384309E-6      -79.0236168      .1217609862E-20        0.0000000

            TERRA                 0.0              0.0      -.7409733867E-7  .38915778075E-6                  0.0
                                  0.0              0.0      .38203843095E-6      100.9763832                  0.0

 RSNSHB               -367.9036557575  389.15778075195      -.3679036558E-6  .38915778075E-6       .7572188916E-4   .7572188916E-4
                      126.84903783653      160.9763832      .12684903784E-6      160.9763832      -.322765875E-20        0.0000000

            TERRA                 0.0              0.0      .36790365576E-6  .38915778075E-6                  0.0
                                  0.0              0.0      -.1268490378E-6      -19.0236168                  0.0

 RSNSHC               293.80631709079  389.15778075195      .29380631709E-6  .38915778075E-6       .7572188916E-4   .7572188916E-4
                      255.18939311289       40.9763832      .25518939311E-6       40.9763832      .6071505696E-20        0.0000000

            TERRA                 0.0              0.0      -.2938063171E-6  .38915778075E-6                  0.0
                                  0.0              0.0      -.2551893931E-6     -139.0236168                  0.0

 RSNNHA               77.797022552499  421.11163281764      .77797022552E-7  .42111163282E-6      .88667503647E-4  .88667503647E-4
                      -413.8630577574      -79.3539068      -.4138630578E-6      -79.3539068      .3474158573E-22        0.0000000

            TERRA                 0.0              0.0      -.7779702255E-7  .42111163282E-6                  0.0
                                  0.0              0.0      .41386305776E-6      100.6460932                  0.0

 RSNNHB               -397.3144329821  421.11163281763       -.397314433E-6  .42111163282E-6      .88667503647E-4  .88667503647E-4
                      139.55733100944      160.6460932      .13955733101E-6      160.6460932      -.249146801E-20        0.0000000

            TERRA                 0.0              0.0      .39731443298E-6  .42111163282E-6                  0.0
                                  0.0              0.0       -.139557331E-6      -19.3539068                  0.0

 RSNNHC               319.51741042956  421.11163281763      .31951741043E-6  .42111163282E-6      .88667503647E-4  .88667503647E-4
                      274.30572674795       40.6460932      .27430572675E-6       40.6460932      .3156521218E-20        0.0000000

            TERRA                 0.0              0.0      -.3195174104E-6  .42111163282E-6                  0.0
                                  0.0              0.0      -.2743057267E-6     -139.3539068                  0.0

 X0001B               -367.9036559014  389.15778075386      -.1195605711E-4  .36677256743E-4      .16815264527E-6  .16815264527E-6
                      126.84903742487      160.9763833      -.3467382097E-4     -109.0249667      -.0071366199171       -0.0071366

            TERRA                 0.0              0.0      .11956057105E-4  .36677256743E-4                  0.0
                                  0.0              0.0       .3467382097E-4       70.9750333                  0.0

 X0002B               -214333.2620342  428660.69238859      .03498706746486  .04040031845151      .20402321637278  .20402321637278
                      -371229.3657361     -120.0004500      -.0202012584062      -30.0018000      -8659.014237668    -8659.0142377

            TERRA                 0.0              0.0      -.0349870674649  .04040031845151                  0.0
                                  0.0              0.0      .02020125840616      149.9982000                  0.0

 X0001A                74.09733909518  389.15778075386      .42848111547755  .43609946802578      .37184865607919  .95091373007E-7
                      -382.0384308683      -79.0236167      .08115836180878       10.7253051      -84.85493583454              0.0

            LN1A      74.097338666699  389.15778075195      -.4284811154776  .43609946802578      -.3718485609878
                      -382.0384309494      -79.0236168      -.0811583618088     -169.2746949       84.85493583454

 SB1A                 428660.69237579  428660.69238902      .42852479964495  .44543429815824      91845.664006497  .99205855975E-7
                      -3.366929462841       -0.0004500       .1215656615372       15.8377949      -26055.93172822              0.0

            X0002A    428660.69237537  428660.69238859      -.4285247996449  .44543429815824       -91845.6640064
                      -3.366929584406       -0.0004500      -.1215656615372     -164.1622051      26055.931728216

 X0001B               -367.9036559014  389.15778075386      -.1439553898308  .43609947808904      .37185522501723  .95091377396E-7
                      126.84903742487      160.9763833      -.4116547103195     -109.2746993      -84.85493776387        0.0000000

            LN1B      -367.9036557575  389.15778075195      .14395538983081  .43609947808904      -.3718551299259
                      126.84903783653      160.9763832      .41165471031945       70.7253007      84.854937763869

 SB1B                 -214333.2620343  428660.69238902        -.10896474123  .44543423067853      91844.522402778  .99205827553E-7
                      -371229.3657365     -120.0004500      -.4319008439779     -104.1597256      -26059.90249536        0.0000000

            X0002B    -214333.2620342  428660.69238859      .10896474123001  .44543423067853      -91844.52240268
                      -371229.3657361     -120.0004500      .43190084397793       75.8402744      26059.902495357

 X0001C               293.80631680627  389.15778075386      -.2845257540685  .43609947317141      .37185124938739  .95091375246E-7
                      255.18939344338       40.9763833      .33049636272153      130.7253033      -84.85493682442              0.0

            LN1C      293.80631709079  389.15778075195      .28452575406845  .43609947317141       -.371851154296
                      255.18939311289       40.9763832      -.3304963627215      -49.2746967      84.854936824416

 SB1C                 -214327.4303414  428660.69238902      -.3195309545845  .44540908049981      91839.818246133  .99194622294E-7
                        371232.732666      119.9995500      .31030504032969      135.8392155      -26056.73376295              0.0

            X0002C    -214327.4303411  428660.69238859      .31953095458448  .44540908049981      -91839.81824603
                      371232.73266568      119.9995500      -.3103050403297      -44.1607845      26056.733762953

 XX0005               428660.69237537  428660.69238859                  0.0              0.0                  0.0              0.0
                      -3.366929584406       -0.0004500                  0.0              0.0                  0.0              0.0

            X0002A    428660.69237537  428660.69238859                  0.0              0.0                  0.0
                      -3.366929584406       -0.0004500                  0.0              0.0                  0.0

 XX0003               -214333.2620342  428660.69238859                  0.0              0.0                  0.0              0.0
                      -371229.3657361     -120.0004500                  0.0              0.0                  0.0              0.0

            X0002B    -214333.2620342  428660.69238859                  0.0              0.0                  0.0
                      -371229.3657361     -120.0004500                  0.0              0.0                  0.0

 XX0004               -214327.4303411  428660.69238859                  0.0              0.0                  0.0              0.0
                      371232.73266568      119.9995500                  0.0              0.0                  0.0              0.0

            X0002C    -214327.4303411  428660.69238859                  0.0              0.0                  0.0
                      371232.73266568      119.9995500                  0.0              0.0                  0.0

 X0001A                74.09733909518  389.15778075386      .36006438359E-4  .36677256743E-4      .16815264527E-6  .16815264527E-6
                      -382.0384308683      -79.0236167      .69826613028E-5       10.9750333      -.0071366199171       -0.0071366

            TERRA                 0.0              0.0      -.3600643836E-4  .36677256743E-4                  0.0
                                  0.0              0.0      -.6982661303E-5     -169.0249667                  0.0

 X0001A                74.09733909518  389.15778075386      -.4285865950363  .42858676232111      -15.80622959894  91843.306418445
                      -382.0384308683      -79.0236167      -.3786715013E-3     -179.9493772      81.882304404731        0.0000000

            X0002A    428660.69237537  428660.69238859      .42858659503627  .42858676232111      91859.112648044
                      -3.366929584406       -0.0004500      .37867150128E-3        0.0506228      -81.88230440473

 X0001B               -367.9036559014  389.15778075386      .21396535837833  .42858676232111      -15.80622959894  91843.306418445
                      126.84903742487      160.9763833      .37135621477353       60.0506228      81.882304404731        0.0000000

            X0002B    -214333.2620342  428660.69238859      -.2139653583783  .42858676232111      91859.112648044
                      -371229.3657361     -120.0004500      -.3713562147735     -119.9493772      -81.88230440473

 X0001C               293.80631680627  389.15778075386      .21462123665794  .42858676232111      -15.80622959894  91843.306418445
                      255.18939344338       40.9763833      -.3709775432722      -59.9493772      81.882304404731        0.0000000

            X0002C    -214327.4303411  428660.69238859      -.2146212366579  .42858676232111      91859.112648044
                      371232.73266568      119.9995500      .37097754327224      120.0506228      -81.88230440473

 X0002C               -214327.4303411  428660.69238859      -.0349883367006  .04040031845151      .20402321637289  .20402321637289
                      371232.73266568      119.9995500      -.0201990600254     -150.0018000      -8659.014237668    -8659.0142377

            TERRA                 0.0              0.0      .03498833670058  .04040031845151                  0.0
                                  0.0              0.0      .02019906002541       29.9982000                  0.0

 X0002A               428660.69237537  428660.69238859      .12692357143E-5  .04040031845151      .20402321637289  .20402321637289
                      -3.366929584406       -0.0004500      .04040031843157       89.9982000      -8659.014237668    -8659.0142377

            TERRA                 0.0              0.0      -.1269235714E-5  .04040031845151                  0.0
                                  0.0              0.0      -.0404003184316      -90.0018000                  0.0

 X0001C               293.80631680627  389.15778075386      -.2405038125E-4  .36677256743E-4      .16815264527E-6  .16815264527E-6
                      255.18939344338       40.9763833      .27691159667E-4      130.9750333      -.0071366199171       -0.0071366

            TERRA                 0.0              0.0      .24050381254E-4  .36677256743E-4                  0.0
                                  0.0              0.0      -.2769115967E-4      -49.0249667                  0.0

 X0001A                74.09733909518  389.15778075386       .6947440529E-4   .0807867014136      15.434380549491  .40790569533068
                      -382.0384308683      -79.0236167      -.0807866715405      -89.9507272      2.9797677513637   -17312.0553939

            X0002A    428660.69237537  428660.69238859      -.6947440529E-4   .0807867014136      -15.02647485416
                      -3.366929584406       -0.0004500      .08078667154053       90.0492728      -17315.03516168

 X0001B               -367.9036559014  389.15778075386      -.0699980470439   .0807867014136      15.434380549491  .40790569533058
                      126.84903742487      160.9763833      .04033316917037      150.0492728      2.9797677513637   -17312.0553939

            X0002B    -214333.2620342  428660.69238859      .06999804704394   .0807867014136      -15.02647485416
                      -371229.3657361     -120.0004500      -.0403331691704      -29.9507272      -17315.03516168

 X0001C               293.80631680627  389.15778075386      .06992857263865   .0807867014136      15.434380549491  .40790569533086
                      255.18939344338       40.9763833      .04045350237016       30.0492728      2.9797677513637   -17312.0553939

            X0002C    -214327.4303411  428660.69238859      -.0699285726386   .0807867014136      -15.02647485416
                      371232.73266568      119.9995500      -.0404535023702     -149.9507272      -17315.03516168

 LN1A                 74.097338666699  389.15778075195      .42848103999384     .43609946479      .37177296065384  .37168429315017
                      -382.0384309494      -79.0236168      .08115874294197       10.7253561      -84.85493553618      -84.8549355

            VFF2A     77.797022552499  421.11163281764      -.7779702279E-7   .4211116329E-6      -.8866750366E-4
                      -413.8630577574      -79.3539068       .4138630578E-6      100.6460932      .4755488742E-13

 LN1B                 -367.9036557575  389.15778075195        -.14395498687     .43609946479      .37177296065385  .37168429315018
                      126.84903783653      160.9763832      -.4116548371456     -109.2746439      -84.85493553618      -84.8549355

            VFF2B     -397.3144329821  421.11163281763       .3973144332E-6  .42111163294E-6      -.8866750367E-4
                      139.55733100944      160.6460932      -.1395573308E-6      -19.3539068      .6273063909E-13

 LN1C                 293.80631709079  389.15778075195      -.2845260531239     .43609946479      .37177296065379  .37168429315018
                      255.18939311289       40.9763832      .33049609420366      130.7253561      -84.85493553618      -84.8549355

            VFF2C     319.51741042956  421.11163281763      -.3195174099E-6  .42111163266E-6      -.8866750361E-4
                      274.30572674795       40.6460932      -.2743057271E-6     -139.3539067      .1172615092E-12
     Total network loss  P-loss  by summing injections =   2.758442620003E+05

Output for steady-state phasor switch currents.
      Node-K    Node-M            I-real            I-imag            I-magn          Degrees        Power            Reactive
      LN1A      COMPA         8.39872455E-08   -4.29288440E-07    4.37427048E-07     -78.9303    8.51139567E-05   -1.38612284E-07
      LN1B      COMPB        -3.71873942E-07    1.28971853E-07    3.93603820E-07     160.8726    7.65868691E-05    1.38682156E-07
      LN1C      COMPC         3.09020970E-07    2.83887683E-07    4.19626235E-07      42.5727    8.16187194E-05   -2.27456040E-06
      VFF2A     RSNNHA        7.77970225E-08   -4.13863058E-07    4.21111633E-07     -79.3539    8.86675037E-05    1.27444327E-14
      VFF2B     RSNNHB       -3.97314433E-07    1.39557331E-07    4.21111633E-07     160.6461    8.86675037E-05    9.58233116E-15
      VFF2C     RSNNHC        3.19517410E-07    2.74305727E-07    4.21111633E-07      40.6461    8.86675036E-05   -6.43177959E-14
      VFF2A     SE2A              Open              Open              Open             Open          Open              Open
      VFF2B     SE2B              Open              Open              Open             Open          Open              Open
      VFF2C     SE2C              Open              Open              Open             Open          Open              Open
      X0001B    XX0003            Open              Open              Open             Open          Open              Open
      X0001C    XX0004            Open              Open              Open             Open          Open              Open
      XX0005    X0002A            Open              Open              Open             Open          Open              Open
      XX0003    X0002B            Open              Open              Open             Open          Open              Open
      XX0004    X0002C            Open              Open              Open             Open          Open              Open
      X0001A    XX0005            Open              Open              Open             Open          Open              Open
      VFUENA    IFUENA        4.28933895E-01    1.21565658E-01    4.45827876E-01      15.8234    9.19335528E+04   -2.60552104E+04
      VFUENB    IFUENB       -1.09187999E-01   -4.32250478E-01    4.45827876E-01    -104.1766    9.19335528E+04   -2.60552104E+04
      VFUENC    IFUENC       -3.19745896E-01    3.10684820E-01    4.45827876E-01     135.8234    9.19335528E+04   -2.60552104E+04
      COMPA     RSNSHA        8.39872455E-08   -4.29288440E-07    4.37427048E-07     -78.9303    8.51139567E-05   -1.38612284E-07
      COMPB     RSNSHB       -3.71873942E-07    1.28971853E-07    3.93603820E-07     160.8726    7.65868691E-05    1.38682156E-07
      COMPC     RSNSHC        3.09020970E-07    2.83887683E-07    4.19626235E-07      42.5727    8.16187194E-05   -2.27456040E-06

Solution at nodes with known voltage.   Nodes that are shorted together by switches are shown as a group of names, with the printed
result applying to the composite group.   The entry "MVA" is  SQRT( P**2 + Q**2 )  in units of power,  while  "P.F."  is the
associated power factor.
              Node                Source  node  voltage             Injected  source  current              Injected  source  power
              name         Rectangular            Polar          Rectangular            Polar            P  and  Q    MVA and P.F.

               VFUENA
              IFUENA       428660.705       428660.705      .42893389462823  .44582787621969      91933.552834867  95554.445864493
                                  0.0              0.0      .12156565820008       15.8234460      -26055.21037392        0.9621065

               VFUENB
              IFUENB     -214330.3525       428660.705      -.1091879990794  .44582787621706      91933.552834023  95554.445863928
                      -371231.0601341     -120.0000000       -.432250478391     -104.1765540      -26055.21037482        0.9621065

               VFUENC
              IFUENC     -214330.3525       428660.705      -.3197458955488  .44582787621716      91933.552833717   95554.44586395
                      371231.06013415      120.0000000      .31068482018274      135.8234460      -26055.21037598        0.9621065

  +++  Node  "COMPC "  has no connected linear branches.  Add (to ground) the conductance  G = 1.00000000E-18  mhos.
  +++  Node  "COMPB "  has no connected linear branches.  Add (to ground) the conductance  G = 1.00000000E-18  mhos.
  +++  Node  "COMPA "  has no connected linear branches.  Add (to ground) the conductance  G = 1.00000000E-18  mhos.
Card of names for time-step loop output.          |  LN1A  LN1B  LN1C  COMPA COMPB COMPC SB1A  SB1B  SB1C  SE2A  SE2B  SE2C  VFF2A
Card of names for time-step loop output.          |  VFF2B VFF2C IFUENAIFUENBIFUENC
Card of names for time-step loop output.          |-5VFF2A VFF2B VFF2B VFF2C VFF2C VFF2A LN1A  LN1B  LN1B  LN1C  LN1C  LN1A
Card of names for time-step loop output.          |-5SB1A  SB1B  SB1B  SB1C  SB1C  SB1A
Blank card ending requests for output variables.  |BLANK OUTPUT

Column headings for the  55   EMTP output variables follow.  These are divided among the 5 possible classes as follows ....
  First  27     output variables are electric-network voltage differences (upper voltage minus lower voltage);
  Next   6     output variables are branch currents (flowing from the upper node to the lower node);
  Next   22     output variables belong to MODELS (with "MODELS" an internally-added upper name of pair).
   Step      Time      LN1A       LN1B       LN1C       COMPA      COMPB      COMPC      SB1A       SB1B       SB1C       SE2A
 

                       SE2B       SE2C       VFF2A      VFF2B      VFF2C      IFUENA     IFUENB     IFUENC     VFF2A      VFF2B
                                                                                                               VFF2B      VFF2C

                       VFF2C      LN1A       LN1B       LN1C       SB1A       SB1B       SB1C       VFUENA     VFUENB     VFUENC
                       VFF2A      LN1B       LN1C       LN1A       SB1B       SB1C       SB1A       IFUENA     IFUENB     IFUENC

                       COMPA      COMPB      COMPC      MODELS     MODELS     MODELS     MODELS     MODELS     MODELS     MODELS
                       RSNSHA     RSNSHB     RSNSHC     ANVOL      LONG       R0F        R1F        X0F        X1F        RDIVX

                       MODELS     MODELS     MODELS     MODELS     MODELS     MODELS     MODELS     MODELS     MODELS     MODELS
                       RINSER     CLOSE1     RPPOS      RPCERO     LPPOS      LPCERO     CPPOS      CPCERO     XP         CR

                       MODELS     MODELS     MODELS     MODELS     MODELS
                       SIMET      ENC1       ENC2       ENC1AS     ENC2AS
 ***      Phasor I(0) =  8.3987245E-08                     Switch  "LN1A  "  to  "COMPA "  closed in the steady-state.
 ***      Phasor I(0) = -3.7187394E-07                     Switch  "LN1B  "  to  "COMPB "  closed in the steady-state.
 ***      Phasor I(0) =  3.0902097E-07                     Switch  "LN1C  "  to  "COMPC "  closed in the steady-state.
 ***      Phasor I(0) =  7.7797023E-08                     Switch  "VFF2A "  to  "RSNNHA"  closed in the steady-state.
 ***      Phasor I(0) = -3.9731443E-07                     Switch  "VFF2B "  to  "RSNNHB"  closed in the steady-state.
 ***      Phasor I(0) =  3.1951741E-07                     Switch  "VFF2C "  to  "RSNNHC"  closed in the steady-state.
 ***      Phasor I(0) =  4.2893389E-01                     Switch  "VFUENA"  to  "IFUENA"  closed in the steady-state.
 ***      Phasor I(0) = -1.0918800E-01                     Switch  "VFUENB"  to  "IFUENB"  closed in the steady-state.
 ***      Phasor I(0) = -3.1974590E-01                     Switch  "VFUENC"  to  "IFUENC"  closed in the steady-state.
 ***      Phasor I(0) =  8.3987245E-08                     Switch  "COMPA "  to  "RSNSHA"  closed in the steady-state.
 ***      Phasor I(0) = -3.7187394E-07                     Switch  "COMPB "  to  "RSNSHB"  closed in the steady-state.
 ***      Phasor I(0) =  3.0902097E-07                     Switch  "COMPC "  to  "RSNSHC"  closed in the steady-state.
      0       0.0  74.0973387 -367.90366 293.806317 74.0973387 -367.90366 293.806317 428660.692 -214333.26 -214327.43        0.0
                          0.0        0.0 77.7970226 -397.31443  319.51741 428660.705 -214330.35 -214330.35 475.111456 -716.83184
                   241.720388 442.000994 -661.70997 219.708978 642993.954 -5.8316929 -642988.12 .428933895   -.109188  -.3197459
                   .839872E-7 -.37187E-6 .309021E-6        0.0    343.389   2.105418   2.086548   7.323828   7.258188    .287475
                         440.    .057254    .029963    .174245    .421336     .93657    .009852    .009312   1447.495   28.94991
                          0.0        0.0        0.0        0.0        0.0
    500     .5E-3   132.94923 -383.21779 250.268558  132.94923 -383.21779 250.268558 423383.691 -153621.39  -269762.3        0.0
                          0.0        0.0 141.581658 -414.25441  272.67275  423383.18 -153618.26 -269764.92 555.836065 -686.92716
                   131.091093 516.167018 -633.48635 117.319329 577005.086 116140.901 -693145.99 .404656933 -.04023256 -.36442437
                   .144842E-6  -.4117E-6 .266838E-6        0.0    343.389   2.105418   2.086548   7.323828   7.258188    .287475
                         440.    .057254    .029963    .174245    .421336     .93657    .009852    .009312   1447.495   28.94991
                          0.0        0.0        0.0        0.0        0.0
   1000     .1E-2  188.527117 -389.09566 200.568545 188.527117 -389.09566 200.568545 407681.585 -89126.863 -318554.72        0.0
                          0.0        0.0 201.880083 -420.99407 219.113983 407680.557 -89123.572 -318556.98 622.874148 -640.10805
                   17.2339005  577.62278 -589.66421  12.041428 496808.448  229427.86 -726236.31 .370393994 .029724531 -.40011853
                   .197338E-6 -.38044E-6 .211556E-6        0.0    343.389   2.105418   2.086548   7.323828   7.258188    .287475
                         440.    .057254    .029963    .174245    .421336     .93657    .009852    .009312   1447.495   28.94991
                          0.0        0.0        0.0        0.0        0.0
   1500     .0015   239.46302  -385.3928 145.929778  239.46302  -385.3928 145.929778 381941.002  -22437.73 -359503.27        0.0
                          0.0        0.0 257.207684 -417.36749  160.15981 381939.485 -22434.368 -359505.12 674.575177  -577.5273
                   -97.047874 624.855819 -531.32258 -93.533242 404378.731 337065.543 -741444.27 .327011486 .098949324 -.42596081
                   .245342E-6 -.40664E-6 .161293E-6        0.0    343.389   2.105418   2.086548   7.323828   7.258188    .287475
                         440.    .057254    .029963    .174245    .421336     .93657    .009852    .009312   1447.495   28.94991
                          0.0        0.0        0.0        0.0        0.0
   2000      .002  284.502552 -372.20029 87.6977361 284.502552 -372.20029 87.6977361 346795.764 44803.8948 -391599.66        0.0
                          0.0        0.0 306.201622  -403.4638 97.2621777 346793.795 44807.2448 -391601.04 709.665422 -500.72598
                   -208.93944 656.702839 -459.89802 -196.80482 301991.869 436403.554 -738395.42 .275576885 .165737648 -.44131453
                   .301687E-6 -.36954E-6 .962827E-7        0.0    343.389   2.105418   2.086548   7.323828   7.258188    .287475
                         440.    .057254    .029963    .174245    .421336     .93657    .009852    .009312   1447.495   28.94991
                          0.0        0.0        0.0        0.0        0.0
   2500     .0025  322.529285 -349.83926 27.3099711 322.529285 -349.83926 27.3099711  303111.26 110942.301 -414053.56        0.0
                          0.0        0.0 347.656063 -379.62559  31.969522 303108.891 110945.554 -414054.45 727.281649 -411.59511
                   -315.68654 672.368541 -377.14923 -295.21931 192168.959 524995.861 -717164.82 .217357331 .228444627 -.44580196
                   .357056E-6 -.38414E-6 .271211E-7        0.0    343.389   2.105418   2.086548   7.323828   7.258188    .287475
                         440.    .057254    .029963    .174245    .421336     .93657    .009852    .009312   1447.495   28.94991
                          0.0        0.0        0.0        0.0        0.0
   3000      .003  352.628493 -318.87113 -33.757359 352.628493 -318.87113 -33.757359 251963.157 174348.935 -426312.09        0.0
                          0.0        0.0 380.550164 -346.43978  -34.11038 251960.441 174352.016 -426312.46 726.989947  -312.3294
                   -414.66054 671.499627 -285.11378 -386.38585 77614.2223 600661.027 -678275.25 .153780756 .285529026 -.43930978
                   .356923E-6 -.35767E-6 -.34772E-7        0.0    343.389   2.105418   2.086548   7.323828   7.258188    .287475
                         440.    .057254    .029963    .174245    .421336     .93657    .009852    .009312   1447.495   28.94991
                          0.0        0.0        0.0        0.0        0.0
   3500     .0035  374.038242 -280.04807 -93.990174 374.038242 -280.04807 -93.990174 194610.881 233462.523  -428073.4        0.0
                          0.0        0.0 404.073771 -304.72344 -99.350329 194607.888 233465.353 -428073.24 708.797212 -205.37311
                    -503.4241 654.086311 -186.05789 -468.02842 -38851.642 661535.926 -622684.28   .0864257 .335578695  -.4220044
                   .397153E-6  -.2892E-6 -.93751E-7        0.0    343.389   2.105418   2.086548   7.323828   7.258188    .287475
                         440.    .057254    .029963    .174245    .421336     .93657    .009852    .009312   1447.495   28.94991
                          0.0        0.0        0.0        0.0        0.0
   4000      .004  386.237457 -234.32905  -151.9084 386.237457 -234.32905  -151.9084 132466.641 286827.487 -419294.13        0.0
                          0.0        0.0 417.648803 -255.50431  -162.1445 132463.443 286829.997 -419293.44  673.15311 -93.359811
                    -579.7933 620.566509 -82.420648 -538.14586 -154360.85 706121.615 -551760.77  .01693842 .377367371 -.39430579
                   .407231E-6 -.25165E-6  -.1556E-6        0.0    343.389   2.105418   2.086548   7.323828   7.258188    .287475
                         440.    .057254    .029963    .174245    .421336     .93657    .009852    .009312   1447.495   28.94991
                          0.0        0.0        0.0        0.0        0.0
   4500     .0045  388.926244 -182.84009 -206.08615 388.926244 -182.84009 -206.08615 67060.6316 333129.807 -400190.44        0.0
                          0.0        0.0  420.93781 -199.99277 -220.94504 67057.3081 333131.936 -400189.24 620.930575 20.9522785
                   -641.88285 571.766333 23.2460654  -595.0124 -266069.18 733320.246 -467251.07 -.05296574  .40986391 -.35689817
                   .380903E-6  -.2044E-6 -.20488E-6        0.0    343.389   2.105418   2.086548   7.323828   7.258188    .287475
                         440.    .057254    .029963    .174245    .421336     .93657    .009852    .009312   1447.495   28.94991
                          0.0        0.0        0.0        0.0        0.0
   5000      .005   382.03744 -126.84852 -255.18892  382.03744 -126.84852 -255.18892 3.37056104 371229.364 -371232.73        0.0
                          0.0        0.0 413.862957 -139.55725  -274.3057 -.45661E-7  371231.06 -371231.06  553.42021 134.748451
                   -688.16866 508.885958 128.340403 -637.22636 -371225.99 742462.098 -371236.11   -.121565 .432267885 -.31070288
                   .415442E-6 -.12642E-6  -.2606E-6        0.0    343.389   2.105418   2.086548   7.323828   7.258188    .287475
                         440.    .057254    .029963    .174245    .421336     .93657    .009852    .009312   1447.495   28.94991
                          0.0        0.0        0.0        0.0        0.0
   5500     .0055  365.743075 -67.734248 -298.00883 365.743075 -67.734248 -298.00883 -67053.971 400188.021 -333134.05        0.0
                          0.0        0.0 396.597523 -75.685427  -320.9121 -67057.308 400189.244 -333131.94 472.282951 245.226669
                   -717.50962 433.477323 230.274578  -663.7519 -467241.99  733322.07 -266080.08  -.1871702 .444027631 -.25685743
                   .394778E-6 -.68271E-7 -.29808E-6        0.0    343.389   2.105418   2.086548   7.323828   7.258188    .287475
                         440.    .057254    .029963    .174245    .421336     .93657    .009852    .009312   1447.495   28.94991
                          0.0        0.0        0.0        0.0        0.0
   6000      .006  340.442672 -6.9520338 -333.49064 340.442672 -6.9520338 -333.49064 -132460.24 419292.728 -286832.49        0.0
                          0.0        0.0   369.5665 -9.9499547 -359.61655 -132463.44  419293.44   -286830. 379.516455 349.666591
                   -729.18305 347.394706 326.538605 -673.93331 -551752.96 706125.219 -154372.25 -.24817092 .444856073 -.19668515
                    .33875E-6 -.76487E-8 -.34532E-6        0.0    343.389   2.105418   2.086548   7.323828   7.258188    .287475
                         440.    .057254    .029963    .174245    .421336     .93657    .009852    .009312   1447.495   28.94991
                          0.0        0.0        0.0        0.0        0.0
   6500     .0065  306.759258 54.0014562 -360.76071 306.759258 54.0014562 -360.76071 -194604.88 428073.052 -233468.17        0.0
                          0.0        0.0 333.437546 56.0295301 -389.46708 -194607.89  428073.24 -233465.35 277.408016 445.496607
                   -722.90462 252.757802 414.762171 -667.51997 -622677.93 661541.221 -38863.287 -.30305694 .434728731 -.13167179
                   .336331E-6 .578986E-7 -.36581E-6        0.0    343.389   2.105418   2.086548   7.323828   7.258188    .287475
                         440.    .057254    .029963    .174245    .421336     .93657    .009852    .009312   1447.495   28.94991
                          0.0        0.0        0.0        0.0        0.0
   7000      .007  265.522203 113.625354 -379.14756 265.522203 113.625354 -379.14756 -251957.71 426312.796 -174355.09        0.0
                          0.0        0.0 289.094577 120.631196 -409.72577 -251960.44 426312.457 -174352.02  168.46338  530.35697
                   -698.82035 151.896849 492.772911 -644.66976 -678270.51 600667.883 77602.6222 -.35048173 .413897442 -.06341571
                   .287573E-6  .11335E-6 -.40091E-6        0.0    343.389   2.105418   2.086548   7.323828   7.258188    .287475
                         440.    .057254    .029963    .174245    .421336     .93657    .009852    .009312   1447.495   28.94991
                          0.0        0.0        0.0        0.0        0.0
   7500     .0075  217.751857 170.449057 -388.20091 217.751857 170.449057 -388.20091 -303106.49 414055.301 -110948.81        0.0
                          0.0        0.0 237.634689  182.26175 -419.89644 -303108.89 414054.446 -110945.55 55.3729385  602.15819
                   -657.53113 47.3027996 558.649971 -605.95277 -717161.79 525004.108 192157.687 -.38927674 .382874747 .006401994
                   .230146E-6 .188473E-6 -.41866E-6        0.0    343.389   2.105418   2.086548   7.323828   7.258188    .287475
                         440.    .057254    .029963    .174245    .421336     .93657    .009852    .009312   1447.495   28.94991
                          0.0        0.0        0.0        0.0        0.0
   8000      .008   164.61053  223.08034 -387.69087  164.61053  223.08034 -387.69087  -346791.8 391602.394 -44810.596        0.0
                          0.0        0.0  180.32341 239.404431 -419.72784  -346793.8  391601.04 -44807.245 -59.081021 659.132273
                   -600.05125  -58.46981 610.771211  -552.3014 -738394.19  436412.99 301981.202 -.41848581  .34242408 .076061731
                   .159851E-6  .24484E-6 -.43312E-6        0.0    343.389   2.105418   2.086548   7.323828   7.258188    .287475
                         440.    .057254    .029963    .174245    .421336     .93657    .009852    .009312   1447.495   28.94991
                          0.0        0.0        0.0        0.0        0.0
   8500     .0085  107.420474 270.216369 -377.63684 107.420474 270.216369 -377.63684 -381937.94 359506.939 22431.0033        0.0
                          0.0        0.0 118.572169 290.652081 -409.22425 -381939.48 359505.117 22434.3679 -172.07991 699.876331
                   -527.79642 -162.79589 647.853213 -485.05732 -741444.88 337075.935 404368.945 -.43739025 .293541731 .143848517
                   .117416E-6 .279002E-6  -.4106E-6        0.0    343.389   2.105418   2.086548   7.323828   7.258188    .287475
                         440.    .057254    .029963    .174245    .421336     .93657    .009852    .009312   1447.495   28.94991
                          0.0        0.0        0.0        0.0        0.0
   9000      .009  47.5855518 310.698687 -358.28424 47.5855518 310.698687 -358.28424  -407679.5 318559.229 89120.2761        0.0
                          0.0        0.0 53.9020224 334.742567 -388.64459 -407680.56 318556.985  89123.572 -280.84054 723.387157
                   -442.54661 -263.11314 668.982926 -405.86979 -726238.73 229438.953 496799.781 -.44552604 .237432089 .208093955
                   .495442E-7 .346805E-6  -.3537E-6        0.0    343.389   2.105418   2.086548   7.323828   7.258188    .287475
                         440.    .057254    .029963    .174245    .421336     .93657    .009852    .009312   1447.495   28.94991
                          0.0        0.0        0.0        0.0        0.0
   9500     .0095  -13.421161 343.530607 -330.10945 -13.421161 343.530607 -330.10945 -423382.64 269767.531  153615.11        0.0
                          0.0        0.0 -12.096595 370.591168 -358.49457 -423383.18 269764.922 153618.258 -382.68776 729.085741
                   -346.39798 -356.95177 673.640054 -316.68829 -693150.17 116152.421 576997.751  -.4426903 .175475478 .267214823
                   -.13871E-7 .356196E-6 -.34409E-6        0.0    343.389   2.105418   2.086548   7.323828   7.258188    .287475
                         440.    .057254    .029963    .174245    .421336     .93657    .009852    .009312   1447.495   28.94991
                          0.0        0.0        0.0        0.0        0.0
  10000       .01  -74.091415 367.900692 -293.80928 -74.091415 367.900692 -293.80928 -428660.69  214333.26 214327.428        0.0
                          0.0        0.0 -77.796669 397.314245 -319.51758 -428660.71 214330.353 214330.352 -475.11091 716.831822
                   -241.72091 -441.99211 661.709968 -219.71786 -642993.95 5.83194945 642988.115 -.42895566  .10919888 .319756778
                   -.79774E-7 .405021E-6 -.32526E-6        0.0    343.389   2.105418   2.086548   7.323828   7.258188    .287475
                         440.    .057254    .029963    .174245    .421336     .93657    .009852    .009312   1447.495   28.94991
                          0.0        0.0        0.0        0.0        0.0
  10500     .0105   -132.9496 383.217975 -250.26838  -132.9496 383.217975 -250.26838  -423383.7 153621.398 269762.299        0.0
                          0.0        0.0 -141.58176 414.254441 -272.67268 -423383.18 153618.258 269764.922  -555.8362  686.92712
                   -131.09092 -516.16757 633.486351 -117.31878 -577005.09  -116140.9 693145.995 -.40465592 .040232054  .36442387
                    -.1439E-6 .426084E-6 -.25376E-6        0.0    343.389   2.105418   2.086548   7.323828   7.258188    .287475
                         440.    .057254    .029963    .174245    .421336     .93657    .009852    .009312   1447.495   28.94991
                          0.0        0.0        0.0        0.0        0.0
  11000      .011  -188.52719 389.095692  -200.5685 -188.52719 389.095692  -200.5685 -407681.58 89126.8623 318554.722        0.0
                          0.0        0.0 -201.88015 420.994073 -219.11392 -407680.56  89123.572 318556.985 -622.87423 640.107991
                   -17.233764 -577.62288 589.664192 -12.041307 -496808.45 -229427.86 726236.306 -.37039401 -.02972452 .400118533
                   -.20606E-6 .384503E-6 -.20688E-6        0.0    343.389   2.105418   2.086548   7.323828   7.258188    .287475
                         440.    .057254    .029963    .174245    .421336     .93657    .009852    .009312   1447.495   28.94991
                          0.0        0.0        0.0        0.0        0.0
  11500     .0115  -239.46311 385.392831 -145.92972 -239.46311 385.392831 -145.92972   -381941. 22437.7296 359503.272        0.0
                          0.0        0.0 -257.20769 417.367508 -160.15982 -381939.48 22434.3679 359505.117  -674.5752 577.527323
                   97.0478764 -624.85594 531.322549 93.5333962 -404378.73 -337065.54 741444.274 -.32701137 -.09894938  .42596075
                   -.26398E-6 .387469E-6 -.15194E-6        0.0    343.389   2.105418   2.086548   7.323828   7.258188    .287475
                         440.    .057254    .029963    .174245    .421336     .93657    .009852    .009312   1447.495   28.94991
                          0.0        0.0        0.0        0.0        0.0
  12000      .012  -284.50263 372.200305  -87.69767 -284.50263 372.200305  -87.69767 -346795.76 -44803.895 391599.659        0.0
                          0.0        0.0 -306.20197 403.463971    -97.262  -346793.8 -44807.245  391601.04 -709.66594 500.725971
                   208.939971 -656.70294 459.897976 196.804964 -301991.87 -436403.55 738395.423 -.27557697  -.1657376 .441314576
                   -.29965E-6 .396946E-6 -.97272E-7        0.0    343.389   2.105418   2.086548   7.323828   7.258188    .287475
                         440.    .057254    .029963    .174245    .421336     .93657    .009852    .009312   1447.495   28.94991
                          0.0        0.0        0.0        0.0        0.0
  12500     .0125  -322.53335 349.841296 -27.307947 -322.53335 349.841296 -27.307947 -303111.27  -110942.3 414053.563        0.0
                          0.0        0.0 -347.65597  379.62553 -31.969561 -303108.89 -110945.55 414054.446  -727.2815 411.595091
                   315.686409 -672.37465 377.149243 295.225402 -192168.97 -524995.86 717164.829 -.21735804 -.22844427 .445802315
                   -.31156E-6 .363211E-6 -.30326E-7        0.0    343.389   2.105418   2.086548   7.323828   7.258188    .287475
                         440.    .057254    .029963    .174245    .421336     .93657    .009852    .009312   1447.495   28.94991
                          0.0        0.0        0.0        0.0        0.0
  13000      .013  -352.62924  318.87151 33.7577308 -352.62924  318.87151 33.7577308 -251963.16 -174348.93 426312.093        0.0
                          0.0        0.0 -380.55024   346.4398 34.1104353 -251960.44 -174352.02 426312.457 -726.99004 312.329365
                   414.660671 -671.50075 285.113779 386.386972 -77614.223 -600661.03 678275.251 -.15378314 -.28552783 .439310975
                   -.36219E-6 .360412E-6 .372893E-7        0.0    343.389   2.105418   2.086548   7.323828   7.258188    .287475
                         440.    .057254    .029963    .174245    .421336     .93657    .009852    .009312   1447.495   28.94991
                          0.0        0.0        0.0        0.0        0.0
  13500     .0135  -374.03834  280.04811 93.9902317 -374.03834  280.04811 93.9902317 -194610.88 -233462.52 428073.405        0.0
                          0.0        0.0 -404.07385 304.723451 99.3503957 -194607.89 -233465.35  428073.24  -708.7973 205.373055
                   503.424242 -654.08645 186.057878 468.028573 38851.6376 -661535.93 622684.288 -.08642512 -.33557898 .422004108
                   -.38415E-6 .311466E-6 .101092E-6        0.0    343.389   2.105418   2.086548   7.323828   7.258188    .287475
                         440.    .057254    .029963    .174245    .421336     .93657    .009852    .009312   1447.495   28.94991
                          0.0        0.0        0.0        0.0        0.0
  14000      .014  -386.23748 234.329049 151.908429 -386.23748 234.329049 151.908429 -132466.64 -286827.49 419294.128        0.0
                          0.0        0.0 -417.64716 255.503492 162.143671 -132463.44   -286830.  419293.44 -673.15065 93.3598202
                   579.790835 -620.56653 82.4206201 538.145906 154360.845 -706121.61 551760.769 -.01693833 -.37736742 .394305747
                    -.4056E-6 .250878E-6 .154716E-6        0.0    343.389   2.105418   2.086548   7.323828   7.258188    .287475
                         440.    .057254    .029963    .174245    .421336     .93657    .009852    .009312   1447.495   28.94991
                          0.0        0.0        0.0        0.0        0.0
  14500     .0145  -388.92632 182.840103 206.086216 -388.92632 182.840103 206.086216 -67060.631 -333129.81 400190.438        0.0
                          0.0        0.0 -420.93791 199.992814 220.945099 -67057.308 -333131.94 400189.244 -620.93073 -20.952285
                   641.883011 -571.76642 -23.246113 595.012536 266069.176 -733320.25  467251.07 .052965774 -.40986393 .356898154
                   -.40246E-6 .186674E-6 .215761E-6        0.0    343.389   2.105418   2.086548   7.323828   7.258188    .287475
                         440.    .057254    .029963    .174245    .421336     .93657    .009852    .009312   1447.495   28.94991
                          0.0        0.0        0.0        0.0        0.0
  % % % % % %   Suspended simulation;  plot data space exhausted;  SPY SPACE is required.   LIMBUF =  840000.
  % % % % % %   Suspended simulation;  plot data space exhausted;  SPY SPACE is required.   LIMBUF =  840000.
  +++  Time-sharing disabled.   Send  user-keyed interrupt to silence alarm.
   Current values.  INDBUF  INDBEG  LIMBUF  MFLUSH  NUMDCD  KCARD1  KCARD2
                    839994      50  840000    1000     230       1     231
Plot timespan now in memory (in sec) = 0.00000000E+00   1.49990000E-02
   ++++  Begin plot-data copy from memory to disk.   MFLUSH, INDBUF, N4, Tbeg,  Tend = 1001  839994       1  -1.00000E+00
1.00000E+19
  15000      .015  -382.03833 126.848971 255.189361 -382.03833 126.848971 255.189361 -3.3746286 -371229.36 371232.736        0.0
                          0.0        0.0 -413.86314 139.557339 274.305806 -.61533E-6 -371231.06  371231.06 -553.42048 -134.74847
                   688.168951  -508.8873 -128.34039 637.227692 371225.987  -742462.1 371236.111 .121565162 -.43226797 .310702807
                    -.3944E-6 .131932E-6 .276676E-6        0.0    343.389   2.105418   2.086548   7.323828   7.258188    .287475
                         440.    .057254    .029963    .174245    .421336     .93657    .009852    .009312   1447.495   28.94991
                          0.0        0.0        0.0        0.0        0.0
  15500     .0155  -365.74332 67.7343729 298.008949 -365.74332 67.7343729 298.008949 67053.9837 -400188.03 333134.043        0.0
                          0.0        0.0 -396.59758  75.685438 320.912144 67057.3081 -400189.24 333131.936 -472.28302 -245.22671
                   717.509727 -433.47769 -230.27458 663.752271 467242.011 -733322.07  266080.06 .187172979 -.44402902 .256856038
                   -.40345E-6 .703255E-7 .304717E-6        0.0    343.389   2.105418   2.086548   7.323828   7.258188    .287475
                         440.    .057254    .029963    .174245    .421336     .93657    .009852    .009312   1447.495   28.94991
                          0.0        0.0        0.0        0.0        0.0
  16000      .016  -340.44273 6.95205521 333.490678 -340.44273 6.95205521 333.490678 132460.236 -419292.73 286832.491        0.0
                          0.0        0.0 -369.56656 9.94995441 359.616602 132463.443 -419293.44 286829.997 -379.51651 -349.66665
                   729.183159 -347.39479 -326.53862 673.933411 551752.964 -706125.22 154372.255 .248170329 -.44485578 .196685449
                   -.34131E-6  .72033E-8 .374945E-6        0.0    343.389   2.105418   2.086548   7.323828   7.258188    .287475
                         440.    .057254    .029963    .174245    .421336     .93657    .009852    .009312   1447.495   28.94991
                          0.0        0.0        0.0        0.0        0.0
  16500     .0165  -306.75915 -54.001522 360.760676 -306.75915 -54.001522 360.760676 194604.881 -428073.05  233468.17        0.0
                          0.0        0.0 -333.43421  -56.03119 389.465403 194607.888 -428073.24 233465.353 -277.40302 -445.49659
                   722.899616 -252.75763  -414.7622  667.51983 622677.933 -661541.22 38863.2885 .303057124 -.43472882 .131671698
                    -.3409E-6 -.55497E-7 .367931E-6        0.0    343.389   2.105418   2.086548   7.323828   7.258188    .287475
                         440.    .057254    .029963    .174245    .421336     .93657    .009852    .009312   1447.495   28.94991
                          0.0        0.0        0.0        0.0        0.0
  17000      .017  -265.52226 -113.62535 379.147611 -265.52226 -113.62535 379.147611 251957.709  -426312.8 174355.087        0.0
                          0.0        0.0 -289.09424 -120.63137 409.725607 251960.441 -426312.46 174352.016 -168.46287 -530.35698
                   698.819844 -151.89692 -492.77296 644.669876 678270.506 -600667.88 -77602.622 .350481708 -.41389743 .063415723
                   -.27379E-6  -.1203E-6 .394095E-6        0.0    343.389   2.105418   2.086548   7.323828   7.258188    .287475
                         440.    .057254    .029963    .174245    .421336     .93657    .009852    .009312   1447.495   28.94991
                          0.0        0.0        0.0        0.0        0.0
  17500     .0175  -217.74827 -170.45085 388.199111 -217.74827 -170.45085 388.199111 303106.495  -414055.3 110948.807        0.0
                          0.0        0.0 -237.63468 -182.26176 419.896441 303108.891 -414054.45 110945.554 -55.372913 -602.15821
                   657.531119  -47.29742 -558.64996 605.947377 717161.796 -525004.11 -192157.69 .389277161 -.38287496  -.0064022
                    -.2357E-6 -.18391E-6 .391185E-6        0.0    343.389   2.105418   2.086548   7.323828   7.258188    .287475
                         440.    .057254    .029963    .174245    .421336     .93657    .009852    .009312   1447.495   28.94991
                          0.0        0.0        0.0        0.0        0.0
  18000      .018  -164.61047 -223.08037 387.690839 -164.61047 -223.08037 387.690839 346791.807  -391602.4 44810.5914        0.0
                          0.0        0.0  -180.3235  -239.4044 419.727905 346793.795 -391601.04 44807.2448  59.080905 -659.13231
                   600.051405 58.4698952 -610.77121 552.301311 738394.206 -436412.99 -301981.22 .418485876 -.34242411 -.07606177
                   -.17894E-6 -.22278E-6  .40172E-6        0.0    343.389   2.105418   2.086548   7.323828   7.258188    .287475
                         440.    .057254    .029963    .174245    .421336     .93657    .009852    .009312   1447.495   28.94991
                          0.0        0.0        0.0        0.0        0.0
  18500     .0185   -107.4205 -270.21637 377.636866  -107.4205 -270.21637 377.636866 381937.945 -359506.94 -22431.005        0.0
                          0.0        0.0 -118.57223 -290.65208 409.224308 381939.485 -359505.12 -22434.368  172.07985 -699.87639
                   527.796537 162.795864 -647.85323 485.057368 741444.885 -337075.94 -404368.95 .437390738 -.29354197 -.14384876
                    -.1068E-6 -.28481E-6 .405824E-6        0.0    343.389   2.105418   2.086548   7.323828   7.258188    .287475
                         440.    .057254    .029963    .174245    .421336     .93657    .009852    .009312   1447.495   28.94991
                          0.0        0.0        0.0        0.0        0.0
  19000      .019  -47.585482 -310.69874 358.284217 -47.585482 -310.69874 358.284217 407679.504 -318559.23 -89120.276        0.0
                          0.0        0.0 -53.900367 -334.74339 388.643754 407680.557 -318556.98 -89123.572  280.84302 -723.38714
                   442.544121 263.113254 -668.98295 405.869699 726238.733 -229438.95 -496799.78 .445525691 -.23743191 -.20809378
                   -.52145E-7  -.3454E-6  .35495E-6        0.0    343.389   2.105418   2.086548   7.323828   7.258188    .287475
                         440.    .057254    .029963    .174245    .421336     .93657    .009852    .009312   1447.495   28.94991
                          0.0        0.0        0.0        0.0        0.0
  19500     .0195  13.4210851 -343.53059 330.109508 13.4210851 -343.53059 330.109508 423382.641 -269767.53 -153615.11        0.0
                          0.0        0.0 12.0965918 -370.59117 358.494579  423383.18 -269764.92 -153618.26 382.687763 -729.08575
                   346.397987 356.951678  -673.6401 316.688423 693150.172 -116152.42 -576997.75 .442690285 -.17547547 -.26721482
                   .132369E-7 -.36122E-6  .33906E-6        0.0    343.389   2.105418   2.086548   7.323828   7.258188    .287475
                         440.    .057254    .029963    .174245    .421336     .93657    .009852    .009312   1447.495   28.94991
                          0.0        0.0        0.0        0.0        0.0
  20000       .02   74.097359 -367.90365 293.806293  74.097359 -367.90365 293.806293 428660.691 -214333.26 -214327.43        0.0
                          0.0        0.0 77.7969908 -397.31441 319.517423 428660.705 -214330.35 -214330.35 475.111405 -716.83184
                   241.720433 442.001011 -661.70995 219.708934 642993.952 -5.8319664 -642988.12 .428955595 -.10919885 -.31975675
                   .828938E-7 -.36276E-6 .308297E-6        0.0    343.389   2.105418   2.086548   7.323828   7.258188    .287475
                         440.    .057254    .029963    .174245    .421336     .93657    .009852    .009312   1447.495   28.94991
                          0.0        0.0        0.0        0.0        0.0
  20500     .0205  132.948739 -383.21754 250.268804 132.948739 -383.21754 250.268804 423383.693  -153621.4  -269762.3        0.0
                          0.0        0.0 141.581623 -414.25439 272.672766  423383.18 -153618.26 -269764.92 555.836013 -686.92716
                   131.091143 516.166282 -633.48635 117.320066 577005.089 116140.901 -693145.99 .404656385 -.04023228  -.3644241
                   .130341E-6 -.39072E-6 .260407E-6        0.0    343.389   2.105418   2.086548   7.323828   7.258188    .287475
                         440.    .057254    .029963    .174245    .421336     .93657    .009852    .009312   1447.495   28.94991
                          0.0        0.0        0.0        0.0        0.0
  21000      .021  188.527118 -389.09566 200.568546 188.527118 -389.09566 200.568546 407681.584 -89126.862 -318554.72        0.0
                          0.0        0.0 201.880078 -420.99406 219.113984 407680.557 -89123.572 -318556.98 622.874141 -640.10805
                   17.2339063 577.622781 -589.66421 12.0414288 496808.446  229427.86 -726236.31 .370393977 .029724539 -.40011852
                   .205672E-6 -.38433E-6 .207088E-6        0.0    343.389   2.105418   2.086548   7.323828   7.258188    .287475
[...]
                         440.    .057254    .029963    .174245    .421336     .93657    .009852    .009312   1447.495   28.94991
                          0.0        0.0        0.0        0.0        0.0
 113000      .113  -248419.93 -180961.47 429381.394 -248419.93 -180961.47 429381.394 -248419.93 -180961.47 429381.394        0.0
                          0.0        0.0 -188420.79 -241474.29 429895.078 -251960.44 -174352.02 426312.457 53053.5013 -671369.37
                   618315.867 -67458.459 -610342.86  677801.32 -67458.459 -610342.86  677801.32 193.739585 -222.74965 29.0100667
                   -.25986E-3 -.19354E-3 .482529E-3        0.0    343.389   2.105418   2.086548   7.323828   7.258188    .287475
                         440.    .057254    .029963    .174245    .421336     .93657    .009852    .009312   1447.495   28.94991
                          0.0        0.0        0.0        0.0        0.0
 113500     .1135  -187004.96 -242882.05 429887.014 -187004.96 -242882.05 429887.014 -187004.96 -242882.05 429887.014        0.0
                          0.0        0.0 -248544.47  -189015.5 437559.972 -194607.89 -233465.35  428073.24 -59528.977 -626575.47
                   686104.446  55877.092 -672769.07 616891.975 55877.0925 -672769.07 616891.975 123.003006 -111.87022 -11.132783
                    -.1921E-3 -.23065E-3 .451863E-3        0.0    343.389   2.105418   2.086548   7.323828   7.258188    .287475
                         440.    .057254    .029963    .174245    .421336     .93657    .009852    .009312   1447.495   28.94991
                          0.0        0.0        0.0        0.0        0.0
 114000      .114  -115352.15 -305510.23 420862.388 -115352.15 -305510.23 420862.388 -115352.15 -305510.23 420862.387        0.0
                          0.0        0.0  -201772.1 -238860.73 440632.834 -132463.44   -286830.  419293.44 37088.6325 -679493.57
                   642404.935 190158.079 -726372.62 536214.542 190158.079 -726372.62 536214.542 123.087148 -78.814507  -44.27264
                   -.12424E-3 -.34216E-3 .466406E-3        0.0    343.389   2.105418   2.086548   7.323828   7.258188    .287475
                         440.    .057254    .029963    .174245    .421336     .93657    .009852    .009312   1447.495   28.94991
                          0.0        0.0        0.0        0.0        0.0
 114500     .1145  -90195.172 -313428.58 403623.756 -90195.172 -313428.58 403623.756 -90195.171 -313428.58 403623.756        0.0
                          0.0        0.0 -173289.26 -260798.65 434087.911 -67057.308 -333131.94 400189.244 87509.3938 -694886.56
                    607377.17 223233.412 -717052.34 493818.928 223233.414 -717052.34 493818.927 454.617309 -387.49539  -67.12192
                    -.9461E-4 -.30495E-3 .428677E-3        0.0    343.389   2.105418   2.086548   7.323828   7.258188    .287475
                         440.    .057254    .029963    .174245    .421336     .93657    .009852    .009312   1447.495   28.94991
                          0.0        0.0        0.0        0.0        0.0
 115000      .115  -24505.489 -346684.82 371190.314 -24505.489 -346684.82 371190.314 -24505.488 -346684.83 371190.313        0.0
                          0.0        0.0 -75870.607 -343153.96 419024.564 .127058E-4 -371231.06  371231.06 267283.349 -762178.52
                   494895.171 322179.335 -717875.14 395695.803 322179.338 -717875.14 395695.801 663.034113 -500.72418 -162.30993
                   -.24705E-4 -.36436E-3 .385433E-3        0.0    343.389   2.105418   2.086548   7.323828   7.258188    .287475
                         440.    .057254    .029963    .174245    .421336     .93657    .009852    .009312   1447.495   28.94991
                          0.0        0.0        0.0        0.0        0.0
 115500     .1155  84256.7262 -425824.48 341567.757 84256.7262 -425824.48 341567.757 84256.7276 -425824.48 341567.756        0.0
                          0.0        0.0 -50937.159 -344529.01 395466.167 67057.3081 -400189.24 333131.936 293591.849 -739995.17
                   446403.326 510081.209 -767392.24 257311.031 510081.212 -767392.24 257311.029 697.499842 -433.32483 -264.17501
                   .865573E-4 -.46867E-3 .323921E-3        0.0    343.389   2.105418   2.086548   7.323828   7.258188    .287475
                         440.    .057254    .029963    .174245    .421336     .93657    .009852    .009312   1447.495   28.94991
                          0.0        0.0        0.0        0.0        0.0
 116000      .116  116567.366 -408714.71 292147.348 116567.366 -408714.71 292147.348 116567.368 -408714.71 292147.347        0.0
                          0.0        0.0 182961.358 -539455.52 356494.165 132463.443 -419293.44 286829.997 722416.882 -895949.69
                   173532.807 525282.081 -700862.06 175579.982 525282.083 -700862.06  175579.98 694.369844 -335.68273 -358.68712
                    .12199E-3 -.39769E-3 .290245E-3        0.0    343.389   2.105418   2.086548   7.323828   7.258188    .287475
                         440.    .057254    .029963    .174245    .421336     .93657    .009852    .009312   1447.495   28.94991
                          0.0        0.0        0.0        0.0        0.0
 116500     .1165  180118.344   -418658. 238539.655 180118.344   -418658. 238539.655 180118.345   -418658. 238539.654        0.0
                          0.0        0.0 295081.819 -580589.53 285507.716 194607.888 -428073.24 233465.353 875671.354 -866097.25
                   -9574.1028 598776.343 -657197.65 58421.3113 598776.344 -657197.65 58421.3091 671.021717 -225.89018 -445.13154
                   .180315E-3  -.4231E-3  .24277E-3        0.0    343.389   2.105418   2.086548   7.323828   7.258188    .287475
                         440.    .057254    .029963    .174245    .421336     .93657    .009852    .009312   1447.495   28.94991
                          0.0        0.0        0.0        0.0        0.0
 117000      .117  280523.479 -459321.64  178798.16 280523.479 -459321.64  178798.16  280523.48 -459321.64 178798.159        0.0
                          0.0        0.0 379611.765 -585043.47 205431.707 251960.441 -426312.46 174352.016 964655.238 -790475.18
                   -174180.06 739845.118  -638119.8 -101725.32 739845.119  -638119.8 -101725.32 542.346561 -6.4403045 -535.90626
                   .307357E-3   -.471E-3  .16363E-3        0.0    343.389   2.105418   2.086548   7.323828   7.258188    .287475
                         440.    .057254    .029963    .174245    .421336     .93657    .009852    .009312   1447.495   28.94991
                          0.0        0.0        0.0        0.0        0.0
 117500     .1175  296792.842 -403788.26 106995.421 296792.842 -403788.26 106995.421 296792.842 -403788.26  106995.42        0.0
                          0.0        0.0 421942.166 -536754.71 114812.545 303108.891 -414054.45 110945.554 958696.876 -651567.25
                   -307129.62 700581.104 -510783.68 -189797.42 700581.104 -510783.68 -189797.42 206.824638 341.598814 -548.42345
                   .280387E-3 -.40146E-3 .106506E-3        0.0    343.389   2.105418   2.086548   7.323828   7.258188    .287475
                         440.    .057254    .029963    .174245    .421336     .93657    .009852    .009312   1447.495   28.94991
                          0.0        0.0        0.0        0.0        0.0
 118000      .118  360782.015 -405612.83  44830.813 360782.015 -405612.83  44830.813 360782.015 -405612.83 44830.8119        0.0
                          0.0        0.0 513935.207 -545445.66 31510.4539 346793.795 -391601.04 44807.2447 .1059381E7 -576956.12
                   -482424.75 766394.844 -450443.64  -315951.2 766394.843 -450443.64  -315951.2 61.5799736 473.107574 -534.68755
                   .375879E-3  -.4213E-3 .454262E-4        0.0    343.389   2.105418   2.086548   7.323828   7.258188    .287475
                         440.    .057254    .029963    .174245    .421336     .93657    .009852    .009312   1447.495   28.94991
                          0.0        0.0        0.0        0.0        0.0
 118500     .1185  386977.564  -366107.4 -20870.159 386977.564  -366107.4 -20870.159 386977.564  -366107.4  -20870.16        0.0
                          0.0        0.0 412175.242 -360179.52 -51995.726 381939.485 -359505.12 -22434.368 772354.757 -308183.79
                   -464170.97 753084.969 -345237.25 -407847.72 753084.968 -345237.24 -407847.72 45.1066866 441.379883 -486.48657
                   .380906E-3 -.34623E-3 -.20092E-4        0.0    343.389   2.105418   2.086548   7.323828   7.258188    .287475
                         440.    .057254    .029963    .174245    .421336     .93657    .009852    .009312   1447.495   28.94991
                          0.0        0.0        0.0        0.0        0.0
 119000      .119  419105.602  -330277.3 -88828.302 419105.602  -330277.3 -88828.302 419105.602  -330277.3 -88828.302        0.0
                          0.0        0.0 393004.613 -275990.15 -117014.46 407680.557 -318556.98 -89123.572 668994.762 -158975.69
                   -510019.08 749382.903   -241449.  -507933.9 749382.902   -241449.  -507933.9 -18.057601 458.779265 -440.72166
                    .45187E-3  -.3393E-3 -.83469E-4        0.0    343.389   2.105418   2.086548   7.323828   7.258188    .287475
                         440.    .057254    .029963    .174245    .421336     .93657    .009852    .009312   1447.495   28.94991
                          0.0        0.0        0.0        0.0        0.0
 119500     .1195  408944.165 -252522.04 -156422.12 408944.165 -252522.04 -156422.12 408944.164 -252522.04 -156422.12        0.0
                          0.0        0.0 395193.583 -219234.16 -175959.42  423383.18 -269764.92 -153618.26 614427.742 -43274.735
                   -571153.01 661466.208 -96099.922 -565366.29 661466.207  -96099.92 -565366.29 -182.28535 555.357177 -373.07183
                   .434748E-3 -.25679E-3 -.14882E-3        0.0    343.389   2.105418   2.086548   7.323828   7.258188    .287475
                         440.    .057254    .029963    .174245    .421336     .93657    .009852    .009312   1447.495   28.94991
                          0.0        0.0        0.0        0.0        0.0
  % % % % % %   Suspended simulation;  plot data space exhausted;  SPY SPACE is required.   LIMBUF =  840000.
  % % % % % %   Suspended simulation;  plot data space exhausted;  SPY SPACE is required.   LIMBUF =  840000.
  +++  Time-sharing disabled.   Send  user-keyed interrupt to silence alarm.
   Current values.  INDBUF  INDBEG  LIMBUF  MFLUSH  NUMDCD  KCARD1  KCARD2
                    839994      50  840000    1007     230       1     231
Plot timespan now in memory (in sec) = 1.04985997E-01   1.19985000E-01
   ++++  Begin plot-data copy from memory to disk.   MFLUSH, INDBUF, N4, Tbeg,  Tend = 1008  839994       1  -1.00000E+00
1.00000E+19
 120000       .12  423845.994 -208799.14 -215046.85 423845.994 -208799.14 -215046.85 423845.994 -208799.14 -215046.85        0.0
                          0.0        0.0 358274.718 -128988.32 -229286.39 428660.705 -214330.35 -214330.35 487263.042  100298.07
                   -587561.11 632645.134 6247.71382 -638892.85 632645.134 6247.71487 -638892.85 129.433446  198.71484 -328.14829
                   .426734E-3 -.22516E-3  -.2307E-3        0.0    343.389   2.105418   2.086548   7.323828   7.258188    .287475
                         440.    .057254    .029963    .174245    .421336     .93657    .009852    .009312   1447.495   28.94991
                          0.0        0.0        0.0        0.0        0.0

Extrema of output variables follow.   Order and column positioning are the same as for the preceding time-step loop output.
Variable maxima :  489032.169 595507.917 435884.919 489032.169 595507.917 435884.919 519573.411 595507.917 435884.919        0.0
                          0.0        0.0 655864.347 660932.386 535802.024 428660.705 428660.703 428660.703 .1114785E7 .1020133E7
                   974763.446 848751.828 804474.601 801980.563 901129.658   804474.6 801980.564 1118.81885 921.046425 690.809094
                   .539238E-3  .68199E-3  .49156E-3        0.0    343.389   2.105418   2.086548   7.323828   7.258188    .287475
                         440.    .057254    .029963    .174245    .421336     .93657    .009852    .009312   1447.495   28.94991
                          0.0        0.0        0.0        0.0        0.0
Times of maxima :     .080333    .067305    .073491    .080333    .067305    .073491    .059781    .067305    .073491        0.0
                          0.0        0.0    .081468    .066495    .073842        0.0    .006667    .113333    .076273    .066093
                      .073684    .077483    .084963    .072503     .05978    .084963    .072503    .074978    .082763    .067369
                       .08032    .067313    .073394        0.0        0.0        0.0        0.0        0.0        0.0        0.0
                          0.0        0.0        0.0        0.0        0.0        0.0        0.0        0.0        0.0        0.0
                          0.0        0.0        0.0        0.0        0.0
Variable minima :  -511874.49 -484259.72 -436730.74 -511874.49 -484259.72 -436730.74 -511874.48 -484259.72 -436730.74        0.0
                          0.0        0.0 -714252.34  -678069.9 -506875.53 -428660.71  -428660.7  -428660.7 -.135532E7 -.101732E7
                   -.108672E7 -.103032E7 -840222.24 -778633.18 -.103032E7 -840222.24 -778633.18 -946.53457  -920.2156  -561.3285
                   -.56088E-3 -.53354E-3 -.48953E-3        0.0    343.389   2.105418   2.086548   7.323828   7.258188    .287475
                         440.    .057254    .029963    .174245    .421336     .93657    .009852    .009312   1447.495   28.94991
                          0.0        0.0        0.0        0.0        0.0
Times of minima :     .069779    .077295    .103183    .069779    .077295    .103183    .069779    .077295    .103183        0.0
                          0.0        0.0    .068538    .076268    .102866        .01    .016667    .103333    .068537    .074366
                      .081486    .067306    .074811    .101301    .067306    .074811    .101301    .082779    .072976     .08037
                      .069785    .077488    .103299        0.0        0.0        0.0        0.0        0.0        0.0        0.0
                          0.0        0.0        0.0        0.0        0.0        0.0        0.0        0.0        0.0        0.0
                          0.0        0.0        0.0        0.0        0.0

Blank card terminating all plot cards.            |BLANK PLOT

Memory storage figures for the preceding, now-completed data case.  -------------------------------  Present   Program
A value of  "-9999"  indicates that no figure is available.         28-Feb-22  19:45:36              figure     limit  (name)
     Size List 1.   Number of electric network nodes.                                                   37      6000  (LBUS)
     Size List 2.   Number of electric network branches.                                                39     10000  (LBRNCH)
     Size List 3.   Number of data values in R, L, C tables.                                            45    192000  (LDATA)
     Size List 4.   Number of electric network sources.                                                  3       900  (LEXCT)
     Size List 5.   Storage for [Y] and triangularized [Y].   No. times =    3     Factors =    66     189    420000  (LYMAT)
     Size List 6.   Number of entries in switch table.                  No. flops = 18                  21      1200  (LSWTCH)
     Size List 7.   Number of distinct ALPHANUMERIC data names plus program SPY variables.              25     15000  (LSIZE7)
     Size List 8.   History points of distributed lines.                                              4311    120000  (LPAST)
     Size List 9.   Number of nonlinear elements.                                                        0      2250  (LNONL)
     Size List 10.  Points of nonlinear characteristics.                                                 0      3800  (LCHAR)
     Size List 11.  Number of Type-59 S.M. outputs.                                                      0       720  (LSMOUT)
     Size List 12.  Total number of EMTP output variables.                                              55      2000  (LSIZ12)
     Size List 13.  Working space for batch/SPY plotting.                                            -9999     72800  (LSIZ13)
     Size List 14.  S.M./U.M. connections to TACS.                                                   -9999       510  (LBSTAC)
     Size List 15.  Character storage in bytes for MODELS.                                            3298     90000  (LCTACS)
     Size List 16.  Total number of Type-59 S.M. masses.                                                 0       800  (LIMASS)
     Size List 17.  Number of Type-59 Synchronous machines.                                              0        90  (LSYN)
     Size List 18.  Branch and switch power/energy outputs.                                              0       254  (MAXPE)
     Size List 19.  Total floating-point TACS table space.                                              23    120000  (LTACST)
     Size List 20.  Non-copied recursive convolution data.                                               0    100000  (LFSEM)
     Size List 21.  Total modal/phase [T] matrix storage.                                                9      3000  (LFD)
     Size List 22.  Total recursive convolution history.                                                 0     15000  (LHIST)
     Size List 23.  Giant vectors for renumbering, phasors;  also extrema accumulation.                  93    192000  (LSIZ23)
     Size List 24.  Peak phases of compensation for data.                                                0       120  (LCOMP)
     Size List 25.  Total table space for all U.M usage.                                             -9999     45000  (LSPCUM)
     Size List 26.  Square of max number of coupled phases.                                              9    260000  (LSIZ26)
     Size List 27.  Maximum number of MODELS top variables.                                             44       600  (LSIZ27)
     Size List 28.  MODELS.  Total work space is divided into INTEGER and REAL.  1st, REAL:           1780    210000  (LRTACS)
                             Second  and last,  statistics for INTEGER work space.                    6838         0  (LITACS)
     Size List 29.  RAM disk used by "TAPSAV" table saving (limit is "LABCOM" size LTLABL).          -9999       600  (LSIZ29)
     Size List 30.  Taku Noda frequency-dependent circuits.                                              0        19  (LSIZ30)
Timing figures characterizing central processor (CP) solution speed.  ----------------------------   CP sec  Wait sec  Real sec
     Data input time (through blank card ending branches) ....                                       0.016     0.000     0.016
     Node renumbering and phasor solution  ....                                                      0.016     0.000     0.016
     After phasor solution, but before time-step loop  ....                                          0.000     0.000     0.000
     Integration of equations (time-step loop)  ....                                                 1.016     0.000     1.016
     Plotting or STATISTICS termination overlays ....                                                0.000     0.000     0.000
                                                                                                    ---------------------------
                                                                                          Totals      1.047     0.000     1.047

