   ---   236   cards of disk file read into card cache cells  1   onward.
 Comment card is ignored.      |C   LBUS  LBRNCH   LDATA   LEXCT   LYMAT  LSWTCH
 Limit CIDEAL cards =   200    |CARDS        200 { Limit of CIDEAL will be 2 mor
 1st card (Lists  1-10).       |    6000   10000  192000     900  420000    120
 Comment card is ignored.      |C LSMOUT  LSIZ12  LSIZ13  LBSTAC  LCTACS  LIMASS
 2nd card (Lists 11-20).       |     720    2000   72800     510   90000     80
 Comment card is ignored.      |C    LFD   LHIST  LSIZ23   NCOMP  LSPCUM  LSIZ26
 3rd card (Lists 21-30).       |    3000   15000  192000     120   45000  26000
 4th card (Lists 31-32).       |     200     300     { Optional card for Lists
 Comment card is ignored.      |C  LWORK  LMARTI
 Supplemental offsets.         |  840000     742
 <===> Done with  "/"-card sorting by data class.    Remember that the source file appears different from interpreted input data.
Alternative Transients Program (ATP),  GNU Linux or DOS.  All rights reserved by Can/Am user group of Portland, Oregon, USA.
 Date (dd-mth-yy) and time of day (hh.mm.ss) = 28-Feb-22  20:05:25   Name of disk plot file is  p\bdfinalisima\energizacion2410.pl4
Consult the 860-page ATP Rule Book of the Can/Am EMTP User Group in Portland,  Oregon, USA.  Source code date is 12 August 2008.
Total size of LABCOM tables = 10913436 INTEGER words.  31 VARDIM  List Sizes follow:  6002  10K  192K  900  420K  1200  15K
  120K  2250  3800  720  2K  72800  510  90K  800  90  254  120K  100K  3K  15K  192K  120  45K  260K  600  210K  1100  60  200
--------------------------------------------------+--------------------------------------------------------------------------------
Descriptive interpretation of input data cards.   |  Input data card images are shown below, all 80 columns, character by character
                                                  0         1         2         3         4         5         6         7         8
                                                  012345678901234567890123456789012345678901234567890123456789012345678901234567890
--------------------------------------------------+--------------------------------------------------------------------------------
Comment card.   NUMDCD = 1.                       |C data:D:\ATP\BDFINALISIMA\ENERGIZACION2410.ATP
Marker card preceding new EMTP data case.         |BEGIN NEW DATA CASE
Comment card.   NUMDCD = 3.                       |C --------------------------------------------------------
Comment card.   NUMDCD = 4.                       |C Generated by ATPDRAW  febrero, lunes 28, 2022
Comment card.   NUMDCD = 5.                       |C A Bonneville Power Administration program
Comment card.   NUMDCD = 6.                       |C by H. K. Høidalen at SEfAS/NTNU - NORWAY 1994-2016
Comment card.   NUMDCD = 7.                       |C --------------------------------------------------------
Comment card.   NUMDCD = 8.                       |C  dT  >< Tmax >< Xopt >< Copt ><Epsiln>
Misc. data.     1.000E-06   1.200E-01   5.000E+01 |   1.E-6     .12     50.
Misc. data.    500    1  0  1  1  0  0  0  0  0   |     500       1       0       1       1       0       0       0       0
  ///  Warning.  Nonzero XOPT or COPT differs from the power frequency of  6.00000000E+01  Hz.   Did the user really want this?
No TACS data,  but MODELS data begins (next).     |MODELS
      Another ordinary MODELS data card.          |OUTPUT
      Another ordinary MODELS data card.          |  AnVol
      Another ordinary MODELS data card.          |  LONG
      Another ordinary MODELS data card.          |  R0F
      Another ordinary MODELS data card.          |  R1F
      Another ordinary MODELS data card.          |  X0F
      Another ordinary MODELS data card.          |  X1F
      Another ordinary MODELS data card.          |  RDIVX
      Another ordinary MODELS data card.          |  RINSER
      Another ordinary MODELS data card.          |  CLOSE1
      Another ordinary MODELS data card.          |  RPpos
      Another ordinary MODELS data card.          |  RPcero
      Another ordinary MODELS data card.          |  LPpos
      Another ordinary MODELS data card.          |  LPcero
      Another ordinary MODELS data card.          |  CPpos
      Another ordinary MODELS data card.          |  CPcero
      Another ordinary MODELS data card.          |  Xp
      Another ordinary MODELS data card.          |  CR
      Another ordinary MODELS data card.          |  SIMET
      Another ordinary MODELS data card.          |  ENC1
      Another ordinary MODELS data card.          |  ENC2
      Another ordinary MODELS data card.          |  ENC1AS
      Another ordinary MODELS data card.          |  ENC2AS
      Another ordinary MODELS data card.          |MODEL DEFAULT
      Another ordinary MODELS data card.          |DATA AnVol,LONG,R0F,R1F,X0F,X1F,RDIVX,RINSER,CLOSE1,RPpos,RPcero,LPpos,LPcero
      Another ordinary MODELS data card.          |OUTPUT o1,o2,o3, o4, o5, o6, o7, o8, o9, o10, o11, o12, o13
      Another ordinary MODELS data card.          |VAR o1,o2,o3, o4, o5, o6, o7, o8, o9, o10, o11, o12, o13
      Another ordinary MODELS data card.          |INIT
      Another ordinary MODELS data card.          |  o1:=AnVol
      Another ordinary MODELS data card.          |  o2:=LONG
      Another ordinary MODELS data card.          |  o3:=R0F
      Another ordinary MODELS data card.          |  o4:=R1F
      Another ordinary MODELS data card.          |  o5:=X0F
      Another ordinary MODELS data card.          |  O6:=X1F
      Another ordinary MODELS data card.          |  o7:=RDIVX
      Another ordinary MODELS data card.          |  o8:=RINSER
      Another ordinary MODELS data card.          |  o9:=CLOSE1
      Another ordinary MODELS data card.          |  o10:=RPpos
      Another ordinary MODELS data card.          |  o11:=RPcero
      Another ordinary MODELS data card.          |  o12:=LPpos
      Another ordinary MODELS data card.          |  o13:=LPcero
      Another ordinary MODELS data card.          |
      Another ordinary MODELS data card.          |ENDINIT
      Another ordinary MODELS data card.          |EXEC
      Another ordinary MODELS data card.          |ENDEXEC
      Another ordinary MODELS data card.          |ENDMODEL
      Another ordinary MODELS data card.          |MODEL DEFAULT1
      Another ordinary MODELS data card.          |DATA CPpos,CPcero,Xp,CR,SIMET,ENC1,ENC2,ENC1AS,ENC2AS
      Another ordinary MODELS data card.          |OUTPUT o1, o2, o3, o4, o5, o6, o7, o8, o9
      Another ordinary MODELS data card.          |VAR o1, o2, o3, o4, o5, o6, o7, o8, o9
      Another ordinary MODELS data card.          |INIT
      Another ordinary MODELS data card.          |  o1:=CPpos
      Another ordinary MODELS data card.          |  o2:=CPcero
      Another ordinary MODELS data card.          |  o3:=Xp
      Another ordinary MODELS data card.          |  o4:=CR
      Another ordinary MODELS data card.          |  o5:=SIMET
      Another ordinary MODELS data card.          |  o6:=ENC1
      Another ordinary MODELS data card.          |  o7:=ENC2
      Another ordinary MODELS data card.          |  o8:=ENC1AS
      Another ordinary MODELS data card.          |  o9:=ENC2AS
      Another ordinary MODELS data card.          |
      Another ordinary MODELS data card.          |ENDINIT
      Another ordinary MODELS data card.          |EXEC
      Another ordinary MODELS data card.          |ENDEXEC
      Another ordinary MODELS data card.          |ENDMODEL
      Another ordinary MODELS data card.          |USE DEFAULT AS DEFAULT
      Another ordinary MODELS data card.          |DATA
      Another ordinary MODELS data card.          |  AnVol:=      0.0
      Another ordinary MODELS data card.          |  LONG:= 251.9878
      Another ordinary MODELS data card.          |  R0F:= 0.840863
      Another ordinary MODELS data card.          |  R1F:= 1.118989
      Another ordinary MODELS data card.          |  X0F:= 6.992794
      Another ordinary MODELS data card.          |  X1F:= 9.305749
      Another ordinary MODELS data card.          |  RDIVX:= 0.120247
      Another ordinary MODELS data card.          |  RINSER:=     380.
      Another ordinary MODELS data card.          |  CLOSE1:= 0.052587
      Another ordinary MODELS data card.          |  RPpos:= 0.025514
      Another ordinary MODELS data card.          |  RPcero:=  0.21413
      Another ordinary MODELS data card.          |  LPpos:= 0.301468
      Another ordinary MODELS data card.          |  LPcero:= 1.101664
      Another ordinary MODELS data card.          |OUTPUT
      Another ordinary MODELS data card.          |  AnVol:=o1
      Another ordinary MODELS data card.          |  LONG:=o2
      Another ordinary MODELS data card.          |  R0F:=o3
      Another ordinary MODELS data card.          |  R1F:=o4
      Another ordinary MODELS data card.          |  X0F:=o5
      Another ordinary MODELS data card.          |  X1F:=o6
      Another ordinary MODELS data card.          |  RDIVX:=o7
      Another ordinary MODELS data card.          |  RINSER:=o8
      Another ordinary MODELS data card.          |  CLOSE1:=o9
      Another ordinary MODELS data card.          |  RPpos:=o10
      Another ordinary MODELS data card.          |  RPcero:=o11
      Another ordinary MODELS data card.          |  LPpos:=o12
      Another ordinary MODELS data card.          |  LPcero:=o13
      Another ordinary MODELS data card.          |ENDUSE
      Another ordinary MODELS data card.          |USE DEFAULT1 AS DEF
      Another ordinary MODELS data card.          |DATA
      Another ordinary MODELS data card.          |  CPpos:= 0.014726
      Another ordinary MODELS data card.          |  CPcero:= 0.008324
      Another ordinary MODELS data card.          |  Xp:= 1319.666
      Another ordinary MODELS data card.          |  CR:= 26.39331
      Another ordinary MODELS data card.          |  SIMET:=       1.
      Another ordinary MODELS data card.          |  ENC1:=      0.0
      Another ordinary MODELS data card.          |  ENC2:=      0.0
      Another ordinary MODELS data card.          |  ENC1AS:=      0.0
      Another ordinary MODELS data card.          |  ENC2AS:=      0.0
      Another ordinary MODELS data card.          |OUTPUT
      Another ordinary MODELS data card.          |  CPpos:=o1
      Another ordinary MODELS data card.          |  CPcero:=o2
      Another ordinary MODELS data card.          |  Xp:=o3
      Another ordinary MODELS data card.          |  CR:=o4
      Another ordinary MODELS data card.          |  SIMET:=o5
      Another ordinary MODELS data card.          |  ENC1:=o6
      Another ordinary MODELS data card.          |  ENC2:=o7
      Another ordinary MODELS data card.          |  ENC1AS:=o8
      Another ordinary MODELS data card.          |  ENC2AS:=o9
      Another ordinary MODELS data card.          |ENDUSE
      Another ordinary MODELS data card.          |RECORD
      Another ordinary MODELS data card.          |  DEFAULT.o1 AS AnVOL
      Another ordinary MODELS data card.          |  DEFAULT.o2 AS LONG
      Another ordinary MODELS data card.          |  DEFAULT.o3 AS R0F
      Another ordinary MODELS data card.          |  DEFAULT.o4 AS R1F
      Another ordinary MODELS data card.          |  DEFAULT.o5 AS X0F
      Another ordinary MODELS data card.          |  DEFAULT.o6 AS X1F
      Another ordinary MODELS data card.          |  DEFAULT.o7 AS RDIVX
      Another ordinary MODELS data card.          |  DEFAULT.o8 AS RINSER
      Another ordinary MODELS data card.          |  DEFAULT.o9 AS CLOSE1
      Another ordinary MODELS data card.          |  DEFAULT.o10 AS RPpos
      Another ordinary MODELS data card.          |  DEFAULT.o11 AS RPcero
      Another ordinary MODELS data card.          |  DEFAULT.o12 AS LPpos
      Another ordinary MODELS data card.          |  DEFAULT.o13 AS LPcero
      Another ordinary MODELS data card.          |  DEF.o1 AS CPpos
      Another ordinary MODELS data card.          |  DEF.o2 AS CPcero
      Another ordinary MODELS data card.          |  DEF.o3 AS Xp
      Another ordinary MODELS data card.          |  DEF.o4 AS CR
      Another ordinary MODELS data card.          |  DEF.o5 AS SIMET
      Another ordinary MODELS data card.          |  DEF.o6 AS ENC1
      Another ordinary MODELS data card.          |  DEF.o7 AS ENC2
      Another ordinary MODELS data card.          |  DEF.o8 AS ENC1AS
      Another ordinary MODELS data card.          |  DEF.o9 AS ENC2AS
Termination of data for Laurent Dube`s MODELS.    |ENDMODELS
Comment card.   NUMDCD = 153.                     |C        1         2         3         4         5         6         7         8
Comment card.   NUMDCD = 154.                     |C 345678901234567890123456789012345678901234567890123456789012345678901234567890
Optional blank card follows last of MODELS data.  |BLANK MODELS
Comment card.   NUMDCD = 156.                     |C < n1 >< n2 ><ref1><ref2>< R  >< L  >< C  >
Comment card.   NUMDCD = 157.                     |C < n1 >< n2 ><ref1><ref2>< R  >< A  >< B  ><Leng><><>0
1st of coupled R-L.   8.40860E-01  2.22588E-02    |51IFUENASB1A              .840866.9927938211
2nd coil. 1.119E+00 2.962E-02 0.000E+00 0.000E+00 |52IFUENBSB1B               1.1199.3057492121
Zca, Zcc=-9.271E-02-2.454E-03 1.026E+00 2.717E-02 |53IFUENCSB1C
Series R-L-C.   1.000E+09  0.000E+00  0.000E+00   |  SB1A                      1.E9                                               0
Series R-L-C.   1.000E+09  0.000E+00  0.000E+00   |  SB1B                      1.E9                                               0
Series R-L-C.   1.000E+09  0.000E+00  0.000E+00   |  SB1C                      1.E9                                               0
Series R-L-C.   1.000E+09  0.000E+00  0.000E+00   |  RSNSHA                    1.E9                                               0
Series R-L-C.   1.000E+09  0.000E+00  0.000E+00   |  RSNSHB                    1.E9                                               0
Series R-L-C.   1.000E+09  0.000E+00  0.000E+00   |  RSNSHC                    1.E9                                               0
Series R-L-C.   1.000E+09  0.000E+00  0.000E+00   |  RSNNHA                    1.E9                                               0
Series R-L-C.   1.000E+09  0.000E+00  0.000E+00   |  RSNNHB                    1.E9                                               0
Series R-L-C.   1.000E+09  0.000E+00  0.000E+00   |  RSNNHC                    1.E9                                               0
Series R-L-C.   1.000E+09  0.000E+00  0.000E+00   |  SE2A                      1.E9                                               0
Series R-L-C.   1.000E+09  0.000E+00  0.000E+00   |  SE2B                      1.E9                                               0
Series R-L-C.   1.000E+09  0.000E+00  0.000E+00   |  SE2C                      1.E9                                               0
Series R-L-C.   2.500E+02  0.000E+00  3.000E-10   |  X0001B                    250.       .0003                                   0
Series R-L-C.   2.500E+02  0.000E+00  3.000E-10   |  X0002B                    250.       .0003                                   0
Series R-L-C.   1.000E-06  0.000E+00  0.000E+00   |  X0001ALN1A               1.E-6                                               0
Series R-L-C.   1.000E-06  0.000E+00  0.000E+00   |  SB1A  X0002A             1.E-6                                               0
Series R-L-C.   1.000E-06  0.000E+00  0.000E+00   |  X0001BLN1B               1.E-6                                               0
Series R-L-C.   1.000E-06  0.000E+00  0.000E+00   |  SB1B  X0002B             1.E-6                                               0
Series R-L-C.   1.000E-06  0.000E+00  0.000E+00   |  X0001CLN1C               1.E-6                                               0
Series R-L-C.   1.000E-06  0.000E+00  0.000E+00   |  SB1C  X0002C             1.E-6                                               0
Series R-L-C.   3.800E+02  0.000E+00  0.000E+00   |  XX0005X0002A              380.                                               0
Series R-L-C.   3.800E+02  0.000E+00  0.000E+00   |  XX0003X0002B              380.                                               0
Series R-L-C.   3.800E+02  0.000E+00  0.000E+00   |  XX0004X0002C              380.                                               0
Series R-L-C.   2.500E+02  0.000E+00  3.000E-10   |  X0001A                    250.       .0003                                   0
Series R-L-C.   1.000E+06  0.000E+00  0.000E+00   |  X0001AX0002A              1.E6                                               0
Series R-L-C.   1.000E+06  0.000E+00  0.000E+00   |  X0001BX0002B              1.E6                                               0
Series R-L-C.   1.000E+06  0.000E+00  0.000E+00   |  X0001CX0002C              1.E6                                               0
Series R-L-C.   2.500E+02  0.000E+00  3.000E-10   |  X0002C                    250.       .0003                                   0
Series R-L-C.   2.500E+02  0.000E+00  3.000E-10   |  X0002A                    250.       .0003                                   0
Series R-L-C.   2.500E+02  0.000E+00  3.000E-10   |  X0001C                    250.       .0003                                   0
Series R-L-C.   1.250E+02  0.000E+00  6.000E-10   |  X0001AX0002A              125.       .0006                                   0
Series R-L-C.   1.250E+02  0.000E+00  6.000E-10   |  X0001BX0002B              125.       .0006                                   0
Series R-L-C.   1.250E+02  0.000E+00  6.000E-10   |  X0001CX0002C              125.       .0006                                   0
 2.141E-01 1.102E+00 8.320E-03 6.492E+02 1.361E-03|-1LN1A  VFF2A             .214131.1017.00832251.99 0 0                         0
 2.551E-02 3.015E-01 1.473E-02 2.552E+02 9.474E-04|-2LN1B  VFF2B             .02551.30147.01473251.99 0 0                         0
3rd or later transposed distributed phase.        |-3LN1C  VFF2C                                                                  0
Blank card ending branches.  IBR, NTOT = 39  31   |BLANK BRANCH
Comment card.   NUMDCD = 198.                     |C < n 1>< n 2>< Tclose ><Top/Tde ><   Ie   ><Vf/CLOP ><  type  >
Switch.  -1.00E+00  1.00E+01  0.00E+00  0.00E+00  |  LN1A  COMPA        -1.       10.                                             0
Switch.  -1.00E+00  1.00E+01  0.00E+00  0.00E+00  |  LN1B  COMPB        -1.       10.                                             0
Switch.  -1.00E+00  1.00E+01  0.00E+00  0.00E+00  |  LN1C  COMPC        -1.       10.                                             0
Switch.  -1.00E+00  1.00E+01  0.00E+00  0.00E+00  |  VFF2A RSNNHA       -1.       10.                                             0
Switch.  -1.00E+00  1.00E+01  0.00E+00  0.00E+00  |  VFF2B RSNNHB       -1.       10.                                             0
Switch.  -1.00E+00  1.00E+01  0.00E+00  0.00E+00  |  VFF2C RSNNHC       -1.       10.                                             0
Switch.   2.00E+00 -1.00E+00  0.00E+00  0.00E+00  |  VFF2A SE2A          2.       -1.                                             0
Switch.   2.00E+00 -1.00E+00  0.00E+00  0.00E+00  |  VFF2B SE2B          2.       -1.                                             0
Switch.   2.00E+00 -1.00E+00  0.00E+00  0.00E+00  |  VFF2C SE2C          2.       -1.                                             0
Switch.   5.26E-02  1.00E+03  0.00E+00  0.00E+00  |  X0001BXX0003.052587126      1.E3                                             0
Switch.   5.26E-02  1.00E+03  0.00E+00  0.00E+00  |  X0001CXX0004.052587126      1.E3                                             0
Switch.   6.01E-02  1.00E+03  0.00E+00  0.00E+00  |  XX0005X0002A.060087126      1.E3                                             0
Switch.   6.01E-02  1.00E+03  0.00E+00  0.00E+00  |  XX0003X0002B.060087126      1.E3                                             0
Switch.   6.01E-02  1.00E+03  0.00E+00  0.00E+00  |  XX0004X0002C.060087126      1.E3                                             0
Switch.   5.26E-02  1.00E+03  0.00E+00  0.00E+00  |  X0001AXX0005.052587126      1.E3                                             0
Permanently-closed switch used for metering.      |  VFUENAIFUENA                                        MEASURING                1
Permanently-closed switch used for metering.      |  VFUENBIFUENB                                        MEASURING                1
Permanently-closed switch used for metering.      |  VFUENCIFUENC                                        MEASURING                1
Permanently-closed switch used for metering.      |  COMPA RSNSHA                                        MEASURING                1
Permanently-closed switch used for metering.      |  COMPB RSNSHB                                        MEASURING                1
Permanently-closed switch used for metering.      |  COMPC RSNSHC                                        MEASURING                1
Blank card ending switches.   KSWTCH = 21.        |BLANK SWITCH
Comment card.   NUMDCD = 221.                     |C < n 1><>< Ampl.  >< Freq.  ><Phase/T0><   A1   ><   T1   >< TSTART >< TSTOP  >
Source.   4.29E+05  5.00E+01  0.00E+00 -1.00E+00  |14VFUENA  428660.705       50.                                     -1.      100.
Source.   4.29E+05  5.00E+01 -1.20E+02 -1.00E+00  |14VFUENB  428660.705       50.     -120.                           -1.      100.
Source.   4.29E+05  5.00E+01 -2.40E+02 -1.00E+00  |14VFUENC  428660.705       50.     -240.                           -1.      100.
Blank card ends electric sources.  KCONST = 3     |BLANK SOURCE
Pi-equivalent branches of distributed circuits are added to the table of List Size 3 between indices  40   and  45.

Sinusoidal steady-state phasor solution, branch by branch.   All flows are away from a bus,  and the real part,  magnitude,  or  "P"
is printed above the imaginary part,  the angle,  or  "Q".   The first solution frequency  =  5.00000000E+01  Hertz.
  Bus K                        Phasor  node  voltage              Phasor  branch  current               Power flow       Power loss
             Bus M         Rectangular            Polar          Rectangular            Polar            P  and  Q        P  and  Q

 IFUENA                    428660.705       428660.705      .42894222207561  .44582901223038      91935.337659599  .11120818280769
                                  0.0              0.0      .12154043881423       15.8200359      -26049.80509406        0.9248217

            SB1A       428661.3560385  428661.35605837      -.4289422220756  .44582901223038      -91935.22645142
                      -4.127632496147       -0.0005517      -.1215404388142     -164.1799641      26050.729915738

 IFUENB                  -214330.3525       428660.705      -.1092140034356  .44582901222951      91935.337659316  .11120818280803
                      -371231.0601341     -120.0000000      -.4322450804799     -104.1799641      -26049.80509437        0.9248217

            SB1B      -214334.2526538  428661.35605837      .10921400343564  .44582901222951      -91935.22645113
                      -371229.5601338     -120.0005517      .43224508047993       75.8200359      26050.729916054

 IFUENC                  -214330.3525       428660.705      -.3197282186364  .44582901222925      91935.337659431  .11120818280687
                      371231.06013415      120.0000000      .31070464166613      135.8200359      -26049.80509376        0.9248217

            SB1C      -214327.1033846  428661.35605837      .31972821863644  .44582901222925      -91935.22645125
                      371233.68776627      119.9994483      -.3107046416661      -44.1799641      26050.729915439

 SB1A                  428661.3560385  428661.35605837      .42866135604E-3  .42866135606E-3        91.8752790889    91.8752790889
                      -4.127632496147       -0.0005517      -.4127632496E-8       -0.0005517      -.403399441E-19        0.0000000

            TERRA                 0.0              0.0       -.428661356E-3  .42866135606E-3                  0.0
                                  0.0              0.0      .41276324961E-8      179.9994483                  0.0

 SB1B                 -214334.2526538  428661.35605837      -.2143342527E-3  .42866135606E-3        91.8752790889    91.8752790889
                      -371229.5601338     -120.0005517      -.3712295601E-3     -120.0005517      .4340278137E-14        0.0000000

            TERRA                 0.0              0.0      .21433425265E-3  .42866135606E-3                  0.0
                                  0.0              0.0      .37122956013E-3       59.9994483                  0.0

 SB1C                 -214327.1033846  428661.35605837      -.2143271034E-3  .42866135606E-3        91.8752790889    91.8752790889
                      371233.68776627      119.9994483      .37123368777E-3      119.9994483      .3361894096E-14        0.0000000

            TERRA                 0.0              0.0      .21432710338E-3  .42866135606E-3                  0.0
                                  0.0              0.0      -.3712336878E-3      -60.0005517                  0.0

 RSNSHA               68.551495247951  362.88137150807      .68551495248E-7  .36288137151E-6      .65841444894E-4  .65841444894E-4
                      -356.3475582726      -79.1108884      -.3563475583E-6      -79.1108884      -.400355416E-21        0.0000000

            TERRA                 0.0              0.0      -.6855149525E-7  .36288137151E-6                  0.0
                                  0.0              0.0      .35634755827E-6      100.8891116                  0.0

 RSNSHB               -342.8817856646  362.88137150807      -.3428817857E-6  .36288137151E-6      .65841444894E-4  .65841444894E-4
                      118.80644278417      160.8891116      .11880644278E-6      160.8891116      .1818142986E-20        0.0000000

            TERRA                 0.0              0.0      .34288178566E-6  .36288137151E-6                  0.0
                                  0.0              0.0      -.1188064428E-6      -19.1108884                  0.0

 RSNSHC               274.33029041666  362.88137150807      .27433029042E-6  .36288137151E-6      .65841444894E-4  .65841444894E-4
                      237.54111548844       40.8891116      .23754111549E-6       40.8891116      .2696608797E-20        0.0000000

            TERRA                 0.0              0.0      -.2743302904E-6  .36288137151E-6                  0.0
                                  0.0              0.0      -.2375411155E-6     -139.1108884                  0.0

 RSNNHA               70.263361864951  379.56770415938      .70263361865E-7  .37956770416E-6       .7203582102E-4   .7203582102E-4
                      -373.0076433805      -79.3322110      -.3730076434E-6      -79.3322110      .8883919779E-21        0.0000000

            TERRA                 0.0              0.0      -.7026336186E-7  .37956770416E-6                  0.0
                                  0.0              0.0      .37300764338E-6      100.6677890                  0.0

 RSNNHB               -358.1657759057  379.56770415938      -.3581657759E-6  .37956770416E-6       .7203582102E-4   .7203582102E-4
                      125.65396535989      160.6677890      .12565396536E-6      160.6677890      -.149388819E-20        0.0000000

            TERRA                 0.0              0.0      .35816577591E-6  .37956770416E-6                  0.0
                                  0.0              0.0      -.1256539654E-6      -19.3322110                  0.0

 RSNNHC               287.90241404079  379.56770415938      .28790241404E-6  .37956770416E-6       .7203582102E-4   .7203582102E-4
                      247.35367802059       40.6677890      .24735367802E-6       40.6677890      -.959529511E-22        0.0000000

            TERRA                 0.0              0.0       -.287902414E-6  .37956770416E-6                  0.0
                                  0.0              0.0       -.247353678E-6     -139.3322110                  0.0

 X0001B               -342.8817858086  362.88137150935      -.1119800481E-4  .34200763516E-4      .14621152814E-6  .14621152814E-6
                      118.80644237252      160.8891117      -.3231558313E-4     -109.1122383       -.006205409984       -0.0062054

            TERRA                 0.0              0.0      .11198004815E-4  .34200763516E-4                  0.0
                                  0.0              0.0      .32315583134E-4       70.8877617                  0.0

 X0002B               -214334.2526537  428661.35605794      .03498708578417  .04040038100087      .20402384812687  .20402384812687
                      -371229.5601333     -120.0005517      -.0202013517703      -30.0019017      -8659.041050141    -8659.0410501

            TERRA                 0.0              0.0      -.0349870857842  .04040038100087                  0.0
                                  0.0              0.0      .02020135177028      149.9980983                  0.0

 X0001A               68.551495676446  362.88137150935      .42849472947637   .4361082327597      .23110107979624  .95095195341E-7
                      -356.3475581915      -79.1108883      .08113357807815       10.7217730      -79.12743933683              0.0

            LN1A      68.551495247951  362.88137150807      -.4284947294764   .4361082327597       -.231100984701
                      -356.3475582726      -79.1108884      -.0811335780782     -169.2782270       79.12743933683

 SB1A                  428661.3560385  428661.35605837      .42852479964495  .44542741619476      91845.760018824   .9920278643E-7
                      -4.127632496147       -0.0005517      .12154044259916       15.8346741      -26050.72986548        0.0000000

            X0002A    428661.35603807  428661.35605794      -.4285247996449  .44542741619476      -91845.76001872
                      -4.127632617687       -0.0005517      -.1215404425992     -164.1653259      26050.729865481

 X0001B               -342.8817858086  362.88137150935      -.1439835841666  .43610822239545      .23109387876798  .95095190819E-7
                      118.80644237252      160.8891117      -.4116541134636     -109.2782218      -79.12743747736        0.0000000

            LN1B      -342.8817856646  362.88137150807      .14398358416656  .43610822239545      -.2310937836728
                      118.80644278417      160.8891116      .41165411346356       70.7217782      79.127437477355

 SB1B                 -214334.2526538  428661.35605837      -.1089938450605  .44544135112258      91847.737328119  .99209003679E-7
                      -371229.5601338     -120.0005517      -.4319008439779     -104.1633554      -26054.70372774        0.0000000

            X0002B    -214334.2526537  428661.35605794      .10899384506047  .44544135112258      -91847.73732802
                      -371229.5601333     -120.0005517      .43190084397793       75.8366446      26054.703727744

 X0001C               274.33029013215  362.88137150935      -.2845110884664  .43610821406828      .23110197803458  .95095187187E-7
                      237.54111581896       40.8891117      .33052052117455      130.7217724      -79.12743594281              0.0

            LN1C      274.33029041666  362.88137150807      .28451108846639  .43610821406828      -.2311018829394
                      237.54111548844       40.8891116      -.3305205211745      -49.2782276      79.127435942808

 SB1C                 -214327.1033846  428661.35605837       -.319501850754  .44542875787103      91847.599648408  .99203390391E-7
                      371233.68776627      119.9994483      .31036324799061      135.8312361      -26045.29718234              0.0

            X0002C    -214327.1033843  428661.35605794      .31950185075402  .44542875787103      -91847.59964831
                      371233.68776596      119.9994483      -.3103632479906      -44.1687639      26045.297182343

 XX0005               428661.35603807  428661.35605794                  0.0              0.0                  0.0              0.0
                      -4.127632617687       -0.0005517                  0.0              0.0                  0.0              0.0

            X0002A    428661.35603807  428661.35605794                  0.0              0.0                  0.0
                      -4.127632617687       -0.0005517                  0.0              0.0                  0.0

 XX0003               -214334.2526537  428661.35605794                  0.0              0.0                  0.0              0.0
                      -371229.5601333     -120.0005517                  0.0              0.0                  0.0              0.0

            X0002B    -214334.2526537  428661.35605794                  0.0              0.0                  0.0
                      -371229.5601333     -120.0005517                  0.0              0.0                  0.0

 XX0004               -214327.1033843  428661.35605794                  0.0              0.0                  0.0              0.0
                      371233.68776596      119.9994483                  0.0              0.0                  0.0              0.0

            X0002C    -214327.1033843  428661.35605794                  0.0              0.0                  0.0
                      371233.68776596      119.9994483                  0.0              0.0                  0.0

 X0001A               68.551495676446  362.88137150935      .33585118339E-4  .34200763516E-4      .14621152814E-6  .14621152814E-6
                      -356.3475581915      -79.1108883      .64600349256E-5       10.8877617       -.006205409984       -0.0062054

            TERRA                 0.0              0.0      -.3358511834E-4  .34200763516E-4                  0.0
                                  0.0              0.0      -.6460034926E-5     -169.1122383                  0.0

 X0001A               68.551495676446  362.88137150935      -.4285928045424   .4285929492705      -14.62758253856  91845.958082194
                      -356.3475581915      -79.1108883      -.3522199256E-3     -179.9529140      76.376072279911        0.0000000

            X0002A    428661.35603807  428661.35605794      .42859280454239   .4285929492705      91860.585664733
                      -4.127632617687       -0.0005517      .35221992557E-3        0.0470860      -76.37607227991

 X0001B               -342.8817858086  362.88137150935      .21399137086793   .4285929492705      -14.62758253856  91845.958082194
                      118.80644237252      160.8891117      .37134836657572       60.0470860      76.376072279911        0.0000000

            X0002B    -214334.2526537  428661.35605794      -.2139913708679   .4285929492705      91860.585664733
                      -371229.5601333     -120.0005517      -.3713483665757     -119.9529140      -76.37607227991

 X0001C               274.33029013215  362.88137150935      .21460143367446   .4285929492705      -14.62758253856  91845.958082194
                      237.54111581896       40.8891117      -.3709961466501      -59.9529140      76.376072279911        0.0000000

            X0002C    -214327.1033843  428661.35605794      -.2146014336745   .4285929492705      91860.585664733
                      371233.68776596      119.9994483      .37099614665014      120.0470860      -76.37607227991

 X0002C               -214327.1033843  428661.35605794      -.0349884267159  .04040038100087      .20402384812702  .20402384812702
                      371233.68776596      119.9994483      -.0201990292083     -150.0019017      -8659.041050141    -8659.0410501

            TERRA                 0.0              0.0      .03498842671593  .04040038100087                  0.0
                                  0.0              0.0      .02019902920834       29.9980983                  0.0

 X0002A               428661.35603807  428661.35605794      .13409317599E-5  .04040038100087      .20402384812693  .20402384812693
                      -4.127632617687       -0.0005517      .04040038097862       89.9980983      -8659.041050141    -8659.0410501

            TERRA                 0.0              0.0       -.134093176E-5  .04040038100087                  0.0
                                  0.0              0.0      -.0404003809786      -90.0019017                  0.0

 X0001C               274.33029013215  362.88137150935      -.2238711352E-4  .34200763516E-4      .14621152814E-6  .14621152814E-6
                      237.54111581896       40.8891117      .25855548208E-4      130.8877617       -.006205409984       -0.0062054

            TERRA                 0.0              0.0      .22387113524E-4  .34200763516E-4                  0.0
                                  0.0              0.0      -.2585554821E-4      -49.1122383                  0.0

 X0001A               68.551495676446  362.88137150935      .64488373159E-4  .08078786762609       14.39648548128  .40791747222317
                      -356.3475581915      -79.1108883      -.0807878418874      -89.9542640      2.7575735597727   -17312.5552208

            X0002A    428661.35603807  428661.35605794      -.6448837316E-4  .08078786762609      -13.98856800906
                      -4.127632617687       -0.0005517      .08078784188738       90.0457360      -17315.31279432

 X0001B               -342.8817858086  362.88137150935       -.069996567578  .08078786762609       14.39648548128  .40791747222308
                      118.80644237252      160.8891117      .04033807237429      150.0457360      2.7575735597727   -17312.5552208

            X0002B    -214334.2526537  428661.35605794      .06999656757797  .08078786762609      -13.98856800906
                      -371229.5601333     -120.0005517      -.0403380723743      -29.9542640      -17315.31279432

 X0001C               274.33029013215  362.88137150935      .06993207920481  .08078786762609       14.39648548128  .40791747222196
                      237.54111581896       40.8891117      .04044976951309       30.0457360      2.7575735597727   -17312.5552208

            X0002C    -214327.1033843  428661.35605794      -.0699320792048  .08078786762609      -13.98856800906
                      371233.68776596      119.9994483      -.0404497695131     -149.9542640      -17315.31279432

 LN1A                 68.551495247951  362.88137150807      .42849465726051  .43610823757523      .23102594274666  .23095390692568
                      -356.3475582726      -79.1108884      .08113398535863       10.7218274       -79.1274404297      -79.1274404

            VFF2A     70.263361864951  379.56770415938        -.70263362E-7  .37956770392E-6      -.7203582098E-4
                      -373.0076433805      -79.3322110      .37300764312E-6      100.6677891      .3510983409E-13

 LN1B                 -342.8817856646  362.88137150807      -.1439832361994  .43610823757523      .23102594274667  .23095390692565
                      118.80644278417      160.8891116      -.4116542512528     -109.2781726       -79.1274404297      -79.1274404

            VFF2B     -358.1657759057  379.56770415938       .3581657759E-6  .37956770416E-6      -.7203582102E-4
                      125.65396535989      160.6677890      -.1256539654E-6      -19.3322110      -.454929082E-14

 LN1C                 274.33029041666  362.88137150807      -.2845114210611  .43610823757523      .23102594274679  .23095390692575
                      237.54111548844       40.8891116      .33052026589419      130.7218274       -79.1274404297      -79.1274404

            VFF2C     287.90241404079  379.56770415938      -.2879024146E-6  .37956770428E-6      -.7203582104E-4
                      247.35367802059       40.6677890      -.2473536776E-6     -139.3322111      -.129834817E-12
     Total network loss  P-loss  by summing injections =   2.758034075926E+05

Output for steady-state phasor switch currents.
      Node-K    Node-M            I-real            I-imag            I-magn          Degrees        Power            Reactive
      LN1A      COMPA         8.00726848E-08   -3.48285857E-07    3.57371898E-07     -77.0524    6.47999585E-05   -2.32909471E-06
      LN1B      COMPB        -3.45774078E-07    1.21256127E-07    3.66418833E-07     160.6752    6.64828212E-05    2.48164614E-07
      LN1C      COMPC         3.13814145E-07    2.23360756E-07    3.85187415E-07      35.4418    6.95730444E-05    6.63457041E-06
      VFF2A     RSNNHA        7.02633625E-08   -3.73007643E-07    3.79567704E-07     -79.3322    7.20358210E-05   -1.34175705E-13
      VFF2B     RSNNHB       -3.58165776E-07    1.25653965E-07    3.79567704E-07     160.6678    7.20358210E-05   -3.93345112E-14
      VFF2C     RSNNHC        2.87902414E-07    2.47353678E-07    3.79567704E-07      40.6678    7.20358210E-05    6.85058224E-14
      VFF2A     SE2A              Open              Open              Open             Open          Open              Open
      VFF2B     SE2B              Open              Open              Open             Open          Open              Open
      VFF2C     SE2C              Open              Open              Open             Open          Open              Open
      X0001B    XX0003            Open              Open              Open             Open          Open              Open
      X0001C    XX0004            Open              Open              Open             Open          Open              Open
      XX0005    X0002A            Open              Open              Open             Open          Open              Open
      XX0003    X0002B            Open              Open              Open             Open          Open              Open
      XX0004    X0002C            Open              Open              Open             Open          Open              Open
      X0001A    XX0005            Open              Open              Open             Open          Open              Open
      VFUENA    IFUENA        4.28942222E-01    1.21540439E-01    4.45829012E-01      15.8200    9.19353377E+04   -2.60498051E+04
      VFUENB    IFUENB       -1.09214003E-01   -4.32245080E-01    4.45829012E-01    -104.1800    9.19353377E+04   -2.60498051E+04
      VFUENC    IFUENC       -3.19728219E-01    3.10704642E-01    4.45829012E-01     135.8200    9.19353377E+04   -2.60498051E+04
      COMPA     RSNSHA        8.00726848E-08   -3.48285857E-07    3.57371898E-07     -77.0524    6.47999585E-05   -2.32909471E-06
      COMPB     RSNSHB       -3.45774078E-07    1.21256127E-07    3.66418833E-07     160.6752    6.64828212E-05    2.48164614E-07
      COMPC     RSNSHC        3.13814145E-07    2.23360756E-07    3.85187415E-07      35.4418    6.95730444E-05    6.63457041E-06

Solution at nodes with known voltage.   Nodes that are shorted together by switches are shown as a group of names, with the printed
result applying to the composite group.   The entry "MVA" is  SQRT( P**2 + Q**2 )  in units of power,  while  "P.F."  is the
associated power factor.
              Node                Source  node  voltage             Injected  source  current              Injected  source  power
              name         Rectangular            Polar          Rectangular            Polar            P  and  Q    MVA and P.F.

               VFUENA
              IFUENA       428660.705       428660.705      .42894222207618   .4458290122303      91935.337659721  95554.689346046
                                  0.0              0.0      .12154043881191       15.8200359      -26049.80509356        0.9621227

               VFUENB
              IFUENB     -214330.3525       428660.705      -.1092140034353  .44582901222966      91935.337659327   95554.68934591
                      -371231.0601341     -120.0000000      -.4322450804802     -104.1799641      -26049.80509445        0.9621227

               VFUENC
              IFUENC     -214330.3525       428660.705      -.3197282186378  .44582901222973      91935.337659444  95554.689345925
                      371231.06013415      120.0000000      .31070464166541      135.8200359      -26049.80509409        0.9621227

  +++  Node  "COMPC "  has no connected linear branches.  Add (to ground) the conductance  G = 1.00000000E-18  mhos.
  +++  Node  "COMPB "  has no connected linear branches.  Add (to ground) the conductance  G = 1.00000000E-18  mhos.
  +++  Node  "COMPA "  has no connected linear branches.  Add (to ground) the conductance  G = 1.00000000E-18  mhos.
Card of names for time-step loop output.          |  LN1A  LN1B  LN1C  COMPA COMPB COMPC SB1A  SB1B  SB1C  SE2A  SE2B  SE2C  VFF2A
Card of names for time-step loop output.          |  VFF2B VFF2C IFUENAIFUENBIFUENC
Card of names for time-step loop output.          |-5VFF2A VFF2B VFF2B VFF2C VFF2C VFF2A LN1A  LN1B  LN1B  LN1C  LN1C  LN1A
Card of names for time-step loop output.          |-5SB1A  SB1B  SB1B  SB1C  SB1C  SB1A
Blank card ending requests for output variables.  |BLANK OUTPUT

Column headings for the  55   EMTP output variables follow.  These are divided among the 5 possible classes as follows ....
  First  27     output variables are electric-network voltage differences (upper voltage minus lower voltage);
  Next   6     output variables are branch currents (flowing from the upper node to the lower node);
  Next   22     output variables belong to MODELS (with "MODELS" an internally-added upper name of pair).
   Step      Time      LN1A       LN1B       LN1C       COMPA      COMPB      COMPC      SB1A       SB1B       SB1C       SE2A
 

                       SE2B       SE2C       VFF2A      VFF2B      VFF2C      IFUENA     IFUENB     IFUENC     VFF2A      VFF2B
                                                                                                               VFF2B      VFF2C

                       VFF2C      LN1A       LN1B       LN1C       SB1A       SB1B       SB1C       VFUENA     VFUENB     VFUENC
                       VFF2A      LN1B       LN1C       LN1A       SB1B       SB1C       SB1A       IFUENA     IFUENB     IFUENC

                       COMPA      COMPB      COMPC      MODELS     MODELS     MODELS     MODELS     MODELS     MODELS     MODELS
                       RSNSHA     RSNSHB     RSNSHC     ANVOL      LONG       R0F        R1F        X0F        X1F        RDIVX

                       MODELS     MODELS     MODELS     MODELS     MODELS     MODELS     MODELS     MODELS     MODELS     MODELS
                       RINSER     CLOSE1     RPPOS      RPCERO     LPPOS      LPCERO     CPPOS      CPCERO     XP         CR

                       MODELS     MODELS     MODELS     MODELS     MODELS
                       SIMET      ENC1       ENC2       ENC1AS     ENC2AS
 ***      Phasor I(0) =  8.0072685E-08                     Switch  "LN1A  "  to  "COMPA "  closed in the steady-state.
 ***      Phasor I(0) = -3.4577408E-07                     Switch  "LN1B  "  to  "COMPB "  closed in the steady-state.
 ***      Phasor I(0) =  3.1381414E-07                     Switch  "LN1C  "  to  "COMPC "  closed in the steady-state.
 ***      Phasor I(0) =  7.0263363E-08                     Switch  "VFF2A "  to  "RSNNHA"  closed in the steady-state.
 ***      Phasor I(0) = -3.5816578E-07                     Switch  "VFF2B "  to  "RSNNHB"  closed in the steady-state.
 ***      Phasor I(0) =  2.8790241E-07                     Switch  "VFF2C "  to  "RSNNHC"  closed in the steady-state.
 ***      Phasor I(0) =  4.2894222E-01                     Switch  "VFUENA"  to  "IFUENA"  closed in the steady-state.
 ***      Phasor I(0) = -1.0921400E-01                     Switch  "VFUENB"  to  "IFUENB"  closed in the steady-state.
 ***      Phasor I(0) = -3.1972822E-01                     Switch  "VFUENC"  to  "IFUENC"  closed in the steady-state.
 ***      Phasor I(0) =  8.0072685E-08                     Switch  "COMPA "  to  "RSNSHA"  closed in the steady-state.
 ***      Phasor I(0) = -3.4577408E-07                     Switch  "COMPB "  to  "RSNSHB"  closed in the steady-state.
 ***      Phasor I(0) =  3.1381414E-07                     Switch  "COMPC "  to  "RSNSHC"  closed in the steady-state.
      0       0.0  68.5514952 -342.88179  274.33029 68.5514952 -342.88179  274.33029 428661.356 -214334.25  -214327.1        0.0
                          0.0        0.0 70.2633619 -358.16578 287.902414 428660.705 -214330.35 -214330.35 428.429138 -646.06819
                   217.639052 411.433281 -617.21208 205.778795 642995.609 -7.1492692 -642988.46 .428942222   -.109214 -.31972822
                   .800727E-7 -.34577E-6 .313814E-6        0.0   251.9878    .840863   1.118989   6.992794   9.305749    .120247
                         380.    .052587    .025514     .21413    .301468   1.101664    .014726    .008324   1319.666   26.39331
                          1.0        0.0        0.0        0.0        0.0
    500     .5E-3  123.452824  -357.2459 233.793074 123.452824  -357.2459 233.793074 423384.457 -153622.34 -269762.12        0.0
                          0.0        0.0 127.749553 -373.41277 245.663214  423383.18 -153618.26 -269764.92  501.16232 -619.07598
                   117.913661 480.698721 -591.03897  110.34025 577006.796 116139.779 -693146.57 .404668461 -.04025898 -.36440948
                   .129764E-6 -.35337E-6 .237837E-6        0.0   251.9878    .840863   1.118989   6.992794   9.305749    .120247
                         380.    .052587    .025514     .21413    .301468   1.101664    .014726    .008324   1319.666   26.39331
                          1.0        0.0        0.0        0.0        0.0
   1000     .1E-2  175.313835 -362.81318 187.499343 175.313835 -362.81318 187.499343 407682.454 -89127.746 -318554.71        0.0
                          0.0        0.0 182.094342  -379.4672  197.37286 407680.557 -89123.572 -318556.98 561.561544 -576.84006
                   15.2785182 538.127014 -550.31252 12.1855078   496810.2 229426.962 -726237.16 .370408297 .029698422 -.40010672
                   .195307E-6  -.3944E-6 .199128E-6        0.0   251.9878    .840863   1.118989   6.992794   9.305749    .120247
                         380.    .052587    .025514     .21413    .301468   1.101664    .014726    .008324   1319.666   26.39331
                          1.0        0.0        0.0        0.0        0.0
   1500     .0015  222.858225 -359.44689 136.588668 222.858225 -359.44689 136.588668 381941.939 -22438.524 -359503.41        0.0
                          0.0        0.0 231.946307 -376.17338 144.227071 381939.485 -22434.368 -359505.12 608.119685 -520.40045
                   -87.719237 582.305118 -496.03556 -86.269557 404380.463 337064.891 -741445.35  .32702896 .098923791 -.42595275
                    .22724E-6 -.35606E-6 .157263E-6        0.0   251.9878    .840863   1.118989   6.992794   9.305749    .120247
                         380.    .052587    .025514     .21413    .301468   1.101664    .014726    .008324   1319.666   26.39331
                          1.0        0.0        0.0        0.0        0.0
   2000      .002  264.914417 -347.22949 82.3150733 264.914417 -347.22949 82.3150733 346796.775 44803.1942 -391599.97        0.0
                          0.0        0.0 276.092685 -363.61976 87.5270738 346793.795 44807.2448 -391601.04 639.712444 -451.14683
                   -188.56561 612.143906 -429.54456 -182.59934 301993.581 436403.163 -738396.74 .275598526 .165712615 -.44131114
                   .279767E-6 -.39145E-6 .832952E-7        0.0   251.9878    .840863   1.118989   6.992794   9.305749    .120247
                         380.    .052587    .025514     .21413    .301468   1.101664    .014726    .008324   1319.666   26.39331
                          1.0        0.0        0.0        0.0        0.0
   2500     .0025  300.448908 -326.46282 26.0139149 300.448908 -326.46282 26.0139149 303112.259 110941.741   -414054.        0.0
                          0.0        0.0 313.439932 -342.11221 28.6722792 303108.891 110945.554 -414054.45 655.552144 -370.78449
                   -284.76765 626.911731 -352.47674 -274.43499 192170.518 524995.742 -717166.26 .217375683 .228424156 -.44579984
                   .292153E-6  -.3355E-6 .256096E-7        0.0   251.9878    .840863   1.118989   6.992794   9.305749    .120247
                         380.    .052587    .025514     .21413    .301468   1.101664    .014726    .008324   1319.666   26.39331
                          1.0        0.0        0.0        0.0        0.0
   3000      .003   328.58486 -297.65731 -30.927547  328.58486 -297.65731 -30.927547  251964.16 174348.511 -426312.67        0.0
                          0.0        0.0 343.068624 -312.18041 -30.888213 251960.441 174352.016 -426312.46 655.249035  -281.2922
                   -373.95684 626.242174 -266.72977 -359.51241 77615.6491 600661.183 -678276.83 .153809809  .28550641 -.43931622
                    .34515E-6 -.29224E-6 -.31579E-7        0.0   251.9878    .840863   1.118989   6.992794   9.305749    .120247
                         380.    .052587    .025514     .21413    .301468   1.101664    .014726    .008324   1319.666   26.39331
                          1.0        0.0        0.0        0.0        0.0
   3500     .0035  348.629713 -261.52237 -87.107341 348.629713 -261.52237 -87.107341 194611.862 233462.245 -428074.11        0.0
                          0.0        0.0   364.2514 -274.56248 -89.688918 194607.888 233465.353 -428073.24 638.813882 -184.87356
                   -453.94032 610.152086 -174.41503 -435.73705 -38850.382 661536.352 -622685.97 .086450881 .335561419  -.4220123
                   .387873E-6 -.28452E-6 -.89101E-7        0.0   251.9878    .840863   1.118989   6.992794   9.305749    .120247
                         380.    .052587    .025514     .21413    .301468   1.101664    .014726    .008324   1319.666   26.39331
                          1.0        0.0        0.0        0.0        0.0
   4000      .004   360.09016 -218.94789 -141.14227  360.09016 -218.94789 -141.14227 132467.577 286827.362 -419294.94        0.0
                          0.0        0.0 376.463688 -230.18321 -146.28048 132463.443 286829.997 -419293.44 606.646895 -83.902725
                   -522.74417 579.038048 -77.805616 -501.23243 -154359.78 706122.301 -551762.52 .016960886 .377354973 -.39431586
                   .370518E-6 -.21714E-6 -.15338E-6        0.0   251.9878    .840863   1.118989   6.992794   9.305749    .120247
                         380.    .052587    .025514     .21413    .301468   1.101664    .014726    .008324   1319.666   26.39331
                          1.0        0.0        0.0        0.0        0.0
   4500     .0045  362.684303 -170.98234 -191.70197 362.684303 -170.98234 -191.70197 67061.4928 333129.841 -400191.33        0.0
                          0.0        0.0 379.406952 -180.13644 -199.27051 67057.3081 333131.936 -400189.24 559.543392 19.1340733
                   -578.67747 533.666641 20.7196271 -554.38627 -266068.35 733321.175 -467252.83  -.0529401 .409853471 -.35691337
                   .405334E-6 -.18446E-6 -.19246E-6        0.0   251.9878    .840863   1.118989   6.992794   9.305749    .120247
                         380.    .052587    .025514     .21413    .301468   1.101664    .014726    .008324   1319.666   26.39331
                          1.0        0.0        0.0        0.0        0.0
   5000      .005  356.347587 -118.80645 -237.54114 356.347587 -118.80645 -237.54114  4.1229292 371229.562 -371233.69        0.0
                          0.0        0.0 373.008663 -125.65447  -247.3542 -.45661E-7  371231.06 -371231.06 498.663128 121.699732
                   -620.36286 475.154033 118.734695 -593.88873 -371225.44 742463.248 -371237.81 -.12154086 .432261683 -.31072083
                   .385754E-6 -.12846E-6 -.24306E-6        0.0   251.9878    .840863   1.118989   6.992794   9.305749    .120247
                         380.    .052587    .025514     .21413    .301468   1.101664    .014726    .008324   1319.666   26.39331
                          1.0        0.0        0.0        0.0        0.0
   5500     .0055  341.236508 -63.705199 -277.53131 341.236508 -63.705199 -277.53131 -67053.333 400188.372 -333135.04        0.0
                          0.0        0.0 357.423505 -68.077386 -289.34612 -67057.308 400189.244 -333131.94 425.500891 221.268734
                   -646.76962 404.941707 213.826111 -618.76782  -467241.7 733323.412 -266081.71 -.18714801 .444025746 -.25687774
                   .367748E-6 -.63737E-7 -.28271E-6        0.0   251.9878    .840863   1.118989   6.992794   9.305749    .120247
                         380.    .052587    .025514     .21413    .301468   1.101664    .014726    .008324   1319.666   26.39331
                          1.0        0.0        0.0        0.0        0.0
   6000      .006  317.722435 -7.0350081 -310.68743 317.722435 -7.0350081 -310.68743 -132459.72 419293.219  -286833.5        0.0
                          0.0        0.0  333.03871 -8.8246685 -324.21404 -132463.44  419293.44   -286830. 341.863379 315.389373
                   -657.25275 324.757443 303.652419 -628.40986 -551752.94 706126.719 -154373.78 -.24814827 .444857078 -.19670881
                   .353449E-6 -.76829E-8  -.3484E-6        0.0   251.9878    .840863   1.118989   6.992794   9.305749    .120247
                         380.    .052587    .025514     .21413    .301468   1.101664    .014726    .008324   1319.666   26.39331
                          1.0        0.0        0.0        0.0        0.0
   6500     .0065   286.38616 49.8078197 -336.19398  286.38616 49.8078197 -336.19398 -194604.51 428073.675 -233469.17        0.0
                          0.0        0.0 300.453285 50.6453932 -351.09868 -194607.89  428073.24 -233465.35 249.807892 401.744072
                   -651.55196 236.578341   386.0018 -622.58014 -622678.18 661542.844 -38864.661 -.30303875 .434734778 -.13169603
                   .299368E-6 .493419E-7 -.35579E-6        0.0   251.9878    .840863   1.118989   6.992794   9.305749    .120247
                         380.    .052587    .025514     .21413    .301468   1.101664    .014726    .008324   1319.666   26.39331
                          1.0        0.0        0.0        0.0        0.0
   7000      .007  247.997737 105.424401 -353.42214 247.997737 105.424401 -353.42214 -251957.48 426313.536 -174356.05        0.0
                          0.0        0.0 260.469565  108.86847 -369.33803 -251960.44 426312.457 -174352.02 151.601095 478.206505
                    -629.8076 142.573336 458.846539 -601.41988 -678271.02 600669.588 77601.4317 -.35046538 .413906852 -.06344147
                   .255702E-6 .108714E-6 -.37861E-6        0.0   251.9878    .840863   1.118989   6.992794   9.305749    .120247
                         380.    .052587    .025514     .21413    .301468   1.101664    .014726    .008324   1319.666   26.39331
                          1.0        0.0        0.0        0.0        0.0
   7500     .0075  203.502531 158.445208 -361.94774 203.502531 158.445208 -361.94774 -303106.43 414056.143 -110949.71        0.0
                          0.0        0.0 214.072695 164.410602  -378.4833 -303108.89 414054.446 -110945.55 49.6620937 542.893899
                   -592.55599  45.057323 520.392947 -565.45027 -717162.58 525005.853 192156.725 -.38926338 .382887662  .00637572
                   .201823E-6 .171838E-6 -.40207E-6        0.0   251.9878    .840863   1.118989   6.992794   9.305749    .120247
                         380.    .052587    .025514     .21413    .301468   1.101664    .014726    .008324   1319.666   26.39331
                          1.0        0.0        0.0        0.0        0.0
   8000      .008  153.996881 207.564337 -361.56122 153.996881 207.564337 -361.56122 -346791.89  391603.31 -44811.421        0.0
                          0.0        0.0 162.404062 215.904695 -378.30876  -346793.8  391601.04 -44807.245 -53.500633 594.213451
                   -540.71282 -53.567456 569.125556  -515.5581  -738395.2 436414.732 301980.468 -.41847766 .342441124 .076036537
                   .158308E-6 .218586E-6 -.37689E-6        0.0   251.9878    .840863   1.118989   6.992794   9.305749    .120247
                         380.    .052587    .025514     .21413    .301468   1.101664    .014726    .008324   1319.666   26.39331
                          1.0        0.0        0.0        0.0        0.0
   8500     .0085  100.698569 251.572917 -352.27149 100.698569 251.572917 -352.27149 -381938.19 359507.911 22430.2794        0.0
                          0.0        0.0  106.73678 262.082355 -368.81913 -381939.48 359505.117 22434.3679 -155.34558  630.90149
                   -475.55591 -150.87435 603.844402 -452.97005  -741446.1 337077.631 404368.469 -.43738542 .293561439 .143823977
                   .999312E-7 .249661E-6  -.3922E-6        0.0   251.9878    .840863   1.118989   6.992794   9.305749    .120247
                         380.    .052587    .025514     .21413    .301468   1.101664    .014726    .008324   1319.666   26.39331
                          1.0        0.0        0.0        0.0        0.0
   9000      .009  44.9210819  289.38676 -334.30784 44.9210819  289.38676 -334.30784  -407679.9 318560.231 89119.6704        0.0
                          0.0        0.0 48.4413037  301.80667 -350.24797 -407680.56 318556.985  89123.572 -253.36537 652.054643
                   -398.68928 -244.46568 623.694603 -379.22892 -726240.13 229440.561 496799.572 -.44552452 .237453914  .20807061
                   .485786E-7 .296912E-6  -.3739E-6        0.0   251.9878    .840863   1.118989   6.992794   9.305749    .120247
                         380.    .052587    .025514     .21413    .301468   1.101664    .014726    .008324   1319.666   26.39331
                          1.0        0.0        0.0        0.0        0.0
   9500     .0095  -11.962718 320.075048 -308.11233 -11.962718 320.075048 -308.11233 -423383.18 269768.544 153614.641        0.0
                          0.0        0.0 -11.047208 334.099631 -323.05242 -423383.18 269764.922 153618.258 -345.14684 657.152054
                   -312.00521 -332.03777 628.187378 -296.14961 -693151.73 116153.903 576997.826 -.44269313 .175499381  .26719375
                   -.11678E-7 .334313E-6 -.31912E-6        0.0   251.9878    .840863   1.118989   6.992794   9.305749    .120247
                         380.    .052587    .025514     .21413    .301468   1.101664    .014726    .008324   1319.666   26.39331
                          1.0        0.0        0.0        0.0        0.0
  10000       .01  -68.551817 342.881944 -274.33013 -68.551817 342.881944 -274.33013 -428661.36 214334.255 214327.105        0.0
                          0.0        0.0 -70.263398 358.165793  -287.9024 -428660.71 214330.353 214330.352 -428.42919 646.068188
                     -217.639 -411.43376 617.212071 -205.77831 -642995.61 7.14958333 642988.465 -.42896177 .109223774 .319737993
                   -.76229E-7 .346239E-6 -.31266E-6        0.0   251.9878    .840863   1.118989   6.992794   9.305749    .120247
                         380.    .052587    .025514     .21413    .301468   1.101664    .014726    .008324   1319.666   26.39331
                          1.0        0.0        0.0        0.0        0.0
  10500     .0105  -123.45255 357.245764 -233.79321 -123.45255 357.245764 -233.79321 -423384.47 153622.344 269762.124        0.0
                          0.0        0.0 -127.74972 373.412855 -245.66313 -423383.18 153618.258 269764.922 -501.16258 619.075985
                   -117.91341 -480.69832 591.038973 -110.34066 -577006.81 -116139.78 693146.592 -.40466744 .040258466 .364408974
                   -.13326E-6 .392567E-6 -.23084E-6        0.0   251.9878    .840863   1.118989   6.992794   9.305749    .120247
                         380.    .052587    .025514     .21413    .301468   1.101664    .014726    .008324   1319.666   26.39331
                          1.0        0.0        0.0        0.0        0.0
  11000      .011  -175.31378 362.813152 -187.49937 -175.31378 362.813152 -187.49937 -407682.45 89127.7449 318554.707        0.0
                          0.0        0.0 -182.09008  379.46508   -197.375 -407680.56  89123.572 318556.985 -561.55516 576.840075
                    -15.28491 -538.12693 550.312527 -12.185598  -496810.2 -229426.96 726237.158 -.37040825 -.02969844 .400106696
                   -.17591E-6 .355766E-6  -.2083E-6        0.0   251.9878    .840863   1.118989   6.992794   9.305749    .120247
                         380.    .052587    .025514     .21413    .301468   1.101664    .014726    .008324   1319.666   26.39331
                          1.0        0.0        0.0        0.0        0.0
  11500     .0115  -222.85668 359.446122 -136.58944 -222.85668 359.446122 -136.58944 -381941.94  22438.524 359503.415        0.0
                          0.0        0.0 -231.94686 376.173657  -144.2268 -381939.48 22434.3679 359505.117 -608.12052 520.400452
                   87.7200666  -582.3028 496.035563 86.2672394 -404380.46 -337064.89 741445.353 -.32702834  -.0989241 .425952441
                   -.24434E-6 .379177E-6 -.13482E-6        0.0   251.9878    .840863   1.118989   6.992794   9.305749    .120247
                         380.    .052587    .025514     .21413    .301468   1.101664    .014726    .008324   1319.666   26.39331
                          1.0        0.0        0.0        0.0        0.0
  12000      .012  -264.91493 347.229742 -82.314811 -264.91493 347.229742 -82.314811 -346796.75 -44803.209 391599.955        0.0
                          0.0        0.0 -276.09269 363.619764 -87.527072  -346793.8 -44807.245  391601.04 -639.71246 451.146837
                   188.565619 -612.14467 429.544553  182.60012 -301993.54 -436403.16 738396.701 -.27559734  -.1657132 .441310542
                   -.27067E-6 .382095E-6 -.83019E-7        0.0   251.9878    .840863   1.118989   6.992794   9.305749    .120247
                         380.    .052587    .025514     .21413    .301468   1.101664    .014726    .008324   1319.666   26.39331
                          1.0        0.0        0.0        0.0        0.0
  12500     .0125  -300.44915 326.462945 -26.013794 -300.44915 326.462945 -26.013794 -303112.27 -110941.74 414054.006        0.0
                          0.0        0.0 -313.44117 342.112828 -28.671662 -303108.89 -110945.55 414054.446 -655.55399  370.78449
                   284.769504 -626.91209 352.476739 274.435356 -192170.54 -524995.74 717166.278 -.21737925 -.22842238 .445801627
                   -.33207E-6 .329346E-6 -.25711E-7        0.0   251.9878    .840863   1.118989   6.992794   9.305749    .120247
                         380.    .052587    .025514     .21413    .301468   1.101664    .014726    .008324   1319.666   26.39331
                          1.0        0.0        0.0        0.0        0.0
  13000      .013  -328.58481 297.657292 30.9275217 -328.58481 297.657292 30.9275217 -251964.16 -174348.51 426312.673        0.0
                          0.0        0.0 -343.06953 312.180866 30.8886652 -251960.44 -174352.02 426312.457  -655.2504 281.292201
                   373.958196 -626.24211 266.729771 359.512336 -77615.653 -600661.18 678276.836 -.15380886 -.28550689 .439315743
                   -.35309E-6 .324976E-6 .316431E-7        0.0   251.9878    .840863   1.118989   6.992794   9.305749    .120247
                         380.    .052587    .025514     .21413    .301468   1.101664    .014726    .008324   1319.666   26.39331
                          1.0        0.0        0.0        0.0        0.0
  13500     .0135  -348.62958 261.522309 87.1072741 -348.62958 261.522309 87.1072741 -194611.87 -233462.24  428074.11        0.0
                          0.0        0.0  -364.2512 274.562386 89.6888167 -194607.89 -233465.35  428073.24 -638.81359 184.873569
                   453.940019 -610.15189 174.415035 435.736858 38850.3745 -661536.35 622685.977 -.08645129 -.33556121 .422012508
                   -.34948E-6  .29465E-6  .97476E-7        0.0   251.9878    .840863   1.118989   6.992794   9.305749    .120247
                         380.    .052587    .025514     .21413    .301468   1.101664    .014726    .008324   1319.666   26.39331
                          1.0        0.0        0.0        0.0        0.0
  14000      .014  -360.09027 218.947941 141.142326 -360.09027 218.947941 141.142326 -132467.57 -286827.36 419294.936        0.0
                          0.0        0.0 -376.46393 230.183327 146.280599 -132463.44   -286830.  419293.44 -606.64725 83.9027279
                   522.744525 -579.03821 77.8056156 501.232593 154359.793  -706122.3 551762.507 -.01696504  -.3773529 .394317934
                   -.40433E-6 .233431E-6 .142463E-6        0.0   251.9878    .840863   1.118989   6.992794   9.305749    .120247
                         380.    .052587    .025514     .21413    .301468   1.101664    .014726    .008324   1319.666   26.39331
                          1.0        0.0        0.0        0.0        0.0
  14500     .0145   -362.6841 170.982234 191.701862  -362.6841 170.982234 191.701862 -67061.486 -333129.84  400191.33        0.0
                          0.0        0.0 -379.40698 180.136453 199.270526 -67057.308 -333131.94 400189.244 -559.54343 -19.134072
                   578.677505 -533.66633 -20.719628 554.385958 266068.359 -733321.17 467252.816 .052939513 -.40985318 .356913665
                   -.37232E-6 .166917E-6 .205415E-6        0.0   251.9878    .840863   1.118989   6.992794   9.305749    .120247
                         380.    .052587    .025514     .21413    .301468   1.101664    .014726    .008324   1319.666   26.39331
                          1.0        0.0        0.0        0.0        0.0
  % % % % % %   Suspended simulation;  plot data space exhausted;  SPY SPACE is required.   LIMBUF =  840000.
  % % % % % %   Suspended simulation;  plot data space exhausted;  SPY SPACE is required.   LIMBUF =  840000.
  +++  Time-sharing disabled.   Send  user-keyed interrupt to silence alarm.
   Current values.  INDBUF  INDBEG  LIMBUF  MFLUSH  NUMDCD  KCARD1  KCARD2
                    839994      50  840000    1000     230       1     231
Plot timespan now in memory (in sec) = 0.00000000E+00   1.49990000E-02
   ++++  Begin plot-data copy from memory to disk.   MFLUSH, INDBUF, N4, Tbeg,  Tend = 1001  839994       1  -1.00000E+00
1.00000E+19
  15000      .015  -356.34755 118.806429 237.541121 -356.34755 118.806429 237.541121 -4.1277759 -371229.56 371233.688        0.0
                          0.0        0.0 -373.00758 125.653922 247.353654 -.61533E-6 -371231.06  371231.06  -498.6615 -121.69973
                   620.361229 -475.15398 -118.73469 593.888671 371225.432 -742463.25 371237.816 .121540466 -.43226149 .310721023
                   -.35309E-6 .127163E-6 .254324E-6        0.0   251.9878    .840863   1.118989   6.992794   9.305749    .120247
                         380.    .052587    .025514     .21413    .301468   1.101664    .014726    .008324   1319.666   26.39331
                          1.0        0.0        0.0        0.0        0.0
  15500     .0155  -341.23593 63.7049102 277.531021 -341.23593 63.7049102 277.531021 67053.3317 -400188.37  333135.04        0.0
                          0.0        0.0 -357.42364 68.0774526 289.346186 67057.3081 -400189.24 333131.936 -425.50109 -221.26873
                   646.769825 -404.94084 -213.82611 618.766953 467241.703 -733323.41 266081.708 .187148963 -.44402622 .256877261
                   -.35051E-6 .695303E-7 .302301E-6        0.0   251.9878    .840863   1.118989   6.992794   9.305749    .120247
                         380.    .052587    .025514     .21413    .301468   1.101664    .014726    .008324   1319.666   26.39331
                          1.0        0.0        0.0        0.0        0.0
  16000      .016  -317.72302 7.03529841 310.687723 -317.72302 7.03529841 310.687723 132459.717 -419293.22 286833.501        0.0
                          0.0        0.0  -333.0388 8.82471674 324.214088 132463.443 -419293.44 286829.997 -341.86352 -315.38937
                   657.252893 -324.75832 -303.65242 628.410745 551752.936 -706126.72 154373.783 .248148178 -.44485703 .196708855
                   -.33845E-6 .754598E-8 .312255E-6        0.0   251.9878    .840863   1.118989   6.992794   9.305749    .120247
                         380.    .052587    .025514     .21413    .301468   1.101664    .014726    .008324   1319.666   26.39331
                          1.0        0.0        0.0        0.0        0.0
  16500     .0165  -286.38637 -49.807713 336.194088 -286.38637 -49.807713 336.194088 194604.504 -428073.67  233469.17        0.0
                          0.0        0.0 -300.45406 -50.645005 351.099068 194607.888 -428073.24 233465.353 -249.80906 -401.74407
                   651.553131 -236.57866  -386.0018 622.580462 622678.178 -661542.84 38864.6652  .30303754 -.43473418 .131696636
                   -.28386E-6 -.49498E-7 .347587E-6        0.0   251.9878    .840863   1.118989   6.992794   9.305749    .120247
                         380.    .052587    .025514     .21413    .301468   1.101664    .014726    .008324   1319.666   26.39331
                          1.0        0.0        0.0        0.0        0.0
  17000      .017  -247.99768 -105.42443 353.422109 -247.99768 -105.42443 353.422109 251957.484 -426313.54 174356.052        0.0
                          0.0        0.0 -260.46995 -108.86828 369.338225 251960.441 -426312.46 174352.016 -151.60167  -478.2065
                    629.80817 -142.57325 -458.84654 601.419788 678271.019 -600669.59 -77601.432 .350465259 -.41390679 .063441534
                   -.26103E-6 -.10607E-6 .395521E-6        0.0   251.9878    .840863   1.118989   6.992794   9.305749    .120247
                         380.    .052587    .025514     .21413    .301468   1.101664    .014726    .008324   1319.666   26.39331
                          1.0        0.0        0.0        0.0        0.0
  17500     .0175  -203.50229 -158.44533 361.947617 -203.50229 -158.44533 361.947617  303106.43 -414056.14 110949.711        0.0
                          0.0        0.0 -214.07252 -164.41069 378.483209 303108.891 -414054.45 110945.554 -49.661831  -542.8939
                    592.55573 -45.056957 -520.39295 565.449904 717162.572 -525005.85 -192156.72 .389263118 -.38288753 -.00637559
                   -.21178E-6 -.15199E-6 .392203E-6        0.0   251.9878    .840863   1.118989   6.992794   9.305749    .120247
                         380.    .052587    .025514     .21413    .301468   1.101664    .014726    .008324   1319.666   26.39331
                          1.0        0.0        0.0        0.0        0.0
  18000      .018  -153.99644 -207.56456    361.561 -153.99644 -207.56456    361.561 346791.895 -391603.31 44811.4182        0.0
                          0.0        0.0 -162.40443 -215.90451  378.30894 346793.795 -391601.04 44807.2448 53.5000824 -594.21345
                   540.713368 53.5681169 -569.12556 515.557442 738395.209 -436414.73 -301980.48 .418476242 -.34244041 -.07603583
                   -.17144E-6 -.21266E-6 .355678E-6        0.0   251.9878    .840863   1.118989   6.992794   9.305749    .120247
                         380.    .052587    .025514     .21413    .301468   1.101664    .014726    .008324   1319.666   26.39331
                          1.0        0.0        0.0        0.0        0.0
  18500     .0185  -100.69853 -251.57294 352.271465 -100.69853 -251.57294 352.271465 381938.192 -359507.91  -22430.28        0.0
                          0.0        0.0 -106.73678 -262.08235 368.819138 381939.485 -359505.12 -22434.368 155.345569 -630.90149
                   475.555923 150.874413  -603.8444 452.969992 741446.103 -337077.63 -404368.47 .437385343  -.2935614 -.14382394
                    -.1067E-6 -.26069E-6 .353175E-6        0.0   251.9878    .840863   1.118989   6.992794   9.305749    .120247
                         380.    .052587    .025514     .21413    .301468   1.101664    .014726    .008324   1319.666   26.39331
                          1.0        0.0        0.0        0.0        0.0
  19000      .019  -44.921794  -289.3864 334.308197 -44.921794  -289.3864 334.308197 407679.899 -318560.23 -89119.669        0.0
                          0.0        0.0 -48.441358 -301.80664 350.247999 407680.557 -318556.98 -89123.572 253.365283 -652.05464
                   398.689357  244.46461  -623.6946  379.22999 726240.129 -229440.56 -496799.57 .445523589 -.23745345 -.20807014
                    -.4895E-7 -.31058E-6 .359549E-6        0.0   251.9878    .840863   1.118989   6.992794   9.305749    .120247
                         380.    .052587    .025514     .21413    .301468   1.101664    .014726    .008324   1319.666   26.39331
                          1.0        0.0        0.0        0.0        0.0
  19500     .0195  11.9625983 -320.07498 308.112384 11.9625983 -320.07498 308.112384 423383.176 -269768.54 -153614.64        0.0
                          0.0        0.0 11.0470333 -334.09954 323.052507  423383.18 -269764.92 -153618.26 345.146573 -657.15205
                   312.005473 332.037581 -628.18737 296.149786 693151.715  -116153.9 -576997.81 .442693478 -.17549956 -.26719392
                   .119745E-7 -.35185E-6 .298984E-6        0.0   251.9878    .840863   1.118989   6.992794   9.305749    .120247
                         380.    .052587    .025514     .21413    .301468   1.101664    .014726    .008324   1319.666   26.39331
                          1.0        0.0        0.0        0.0        0.0
  20000       .02  68.5516365 -342.88185 274.330216 68.5516365 -342.88185 274.330216 428661.355 -214334.25  -214327.1        0.0
                          0.0        0.0 70.2644345 -358.16631 287.901873 428660.705 -214330.35 -214330.35 428.430742 -646.06818
                   217.637439 411.433489 -617.21207  205.77858 642995.607 -7.1495758 -642988.46 .428961148 -.10922347 -.31973768
                   .653714E-7 -.33291E-6 .267552E-6        0.0   251.9878    .840863   1.118989   6.992794   9.305749    .120247
                         380.    .052587    .025514     .21413    .301468   1.101664    .014726    .008324   1319.666   26.39331
                          1.0        0.0        0.0        0.0        0.0
  20500     .0205  123.452507 -357.24574 233.793231 123.452507 -357.24574 233.793231 423384.469 -153622.34 -269762.12        0.0
                          0.0        0.0 127.749205 -373.41259  245.66339  423383.18 -153618.26 -269764.92 501.161799 -619.07598
                   117.914185 480.698244 -591.03897 110.340725 577006.813 116139.779 -693146.59 .404666701  -.0402581  -.3644086
                   .125298E-6 -.35302E-6  .24194E-6        0.0   251.9878    .840863   1.118989   6.992794   9.305749    .120247
                         380.    .052587    .025514     .21413    .301468   1.101664    .014726    .008324   1319.666   26.39331
                          1.0        0.0        0.0        0.0        0.0
  21000      .021  175.313834 -362.81318 187.499346 175.313834 -362.81318 187.499346 407682.456 -89127.747 -318554.71        0.0
                          0.0        0.0 182.090049 -379.46506 197.375011 407680.557 -89123.572 -318556.98 561.555109 -576.84007
                    15.284962 538.127015 -550.31253 12.1855117 496810.204 229426.962 -726237.17  .37040824 .029698451 -.40010669
                   .183812E-6 -.38894E-6 .205153E-6        0.0   251.9878    .840863   1.118989   6.992794   9.305749    .120247
[...]
                         380.    .052587    .025514     .21413    .301468   1.101664    .014726    .008324   1319.666   26.39331
                          1.0        0.0        0.0        0.0        0.0
 113000      .113  -237718.89 -152038.61 389757.509 -237718.89 -152038.61 389757.509 -237718.89 -152038.62 389757.509        0.0
                          0.0        0.0 -216716.31 -125624.33 342340.633 -251960.44 -174352.02 426312.457 -91091.979 -467964.96
                   559056.939 -85680.279 -541796.12 627476.404 -85680.278 -541796.12 627476.403  343.59469 -380.45721 36.8625184
                   -.23556E-3 -.17014E-3 .434816E-3        0.0   251.9878    .840863   1.118989   6.992794   9.305749    .120247
                         380.    .052587    .025514     .21413    .301468   1.101664    .014726    .008324   1319.666   26.39331
                          1.0        0.0        0.0        0.0        0.0
 113500     .1135  -192698.34 -235517.22 428215.556 -192698.34 -235517.22 428215.556 -192698.34 -235517.22 428215.557        0.0
                          0.0        0.0 -169061.02 -174475.11 343536.132 -194607.89 -233465.35  428073.24 5414.09307 -518011.24
                   512597.151 42818.8772 -663732.77 620913.896 42818.8788 -663732.77 620913.896 313.878327 -504.10413 190.225806
                   -.21022E-3 -.24503E-3 .426084E-3        0.0   251.9878    .840863   1.118989   6.992794   9.305749    .120247
                         380.    .052587    .025514     .21413    .301468   1.101664    .014726    .008324   1319.666   26.39331
                          1.0        0.0        0.0        0.0        0.0
 114000      .114  -127610.03 -266265.96 393875.985 -127610.03 -266265.96 393875.985 -127610.03 -266265.96 393875.985        0.0
                          0.0        0.0 -157101.21 -268096.31 425197.526 -132463.44   -286830.  419293.44 110995.099 -693293.84
                    582298.74 138655.932 -660141.94 521486.012 138655.933 -660141.94 521486.012 313.949417 -567.79922 253.849806
                    -.1415E-3 -.27779E-3 .433892E-3        0.0   251.9878    .840863   1.118989   6.992794   9.305749    .120247
                         380.    .052587    .025514     .21413    .301468   1.101664    .014726    .008324   1319.666   26.39331
                          1.0        0.0        0.0        0.0        0.0
 114500     .1145  -79338.714 -341761.62 421100.337 -79338.714 -341761.62 421100.337 -79338.713 -341761.62 421100.337        0.0
                          0.0        0.0 -120059.34  -371382.6 491441.943 -67057.308 -333131.94 400189.244  251323.26 -862824.54
                   611501.285 262422.909 -762861.96 500439.051 262422.911 -762861.96  500439.05 369.980493   -598.037 228.056504
                   -.83523E-4 -.34906E-3 .461668E-3        0.0   251.9878    .840863   1.118989   6.992794   9.305749    .120247
                         380.    .052587    .025514     .21413    .301468   1.101664    .014726    .008324   1319.666   26.39331
                          1.0        0.0        0.0        0.0        0.0
 115000      .115  -21172.123 -399722.29 420894.414 -21172.123 -399722.29 420894.414 -21172.122 -399722.29 420894.414        0.0
                          0.0        0.0 -43156.421  -425757.1 468913.516 .127058E-4 -371231.06  371231.06 382600.674 -894670.61
                   512069.938 378550.168  -820616.7 442066.537  378550.17 -820616.71 442066.535 528.109095 -441.41478 -86.694312
                   -.24162E-4 -.40606E-3 .473738E-3        0.0   251.9878    .840863   1.118989   6.992794   9.305749    .120247
                         380.    .052587    .025514     .21413    .301468   1.101664    .014726    .008324   1319.666   26.39331
                          1.0        0.0        0.0        0.0        0.0
 115500     .1155  62410.8434 -413595.11 351184.269 62410.8434 -413595.11 351184.269 62410.8447 -413595.11 351184.268        0.0
                          0.0        0.0 25797.8961 -493290.88 467492.984 67057.3081 -400189.24 333131.936 519088.777 -960783.87
                   441695.088 476005.956 -764779.38 288773.426 476005.957 -764779.38 288773.423 673.155777 -126.99151 -546.16427
                   .687405E-4 -.42074E-3 .381142E-3        0.0   251.9878    .840863   1.118989   6.992794   9.305749    .120247
                         380.    .052587    .025514     .21413    .301468   1.101664    .014726    .008324   1319.666   26.39331
                          1.0        0.0        0.0        0.0        0.0
 116000      .116  122994.614 -448346.74  325352.13 122994.614 -448346.74  325352.13 122994.615 -448346.74 325352.129        0.0
                          0.0        0.0 130963.329 -500653.22 369689.895 132463.443 -419293.44 286829.997 631616.553 -870343.12
                   238726.565 571341.358 -773698.87 202357.516 571341.359 -773698.87 202357.514 640.003271 -6.9843325 -633.01894
                   .131747E-3 -.49871E-3 .352502E-3        0.0   251.9878    .840863   1.118989   6.992794   9.305749    .120247
                         380.    .052587    .025514     .21413    .301468   1.101664    .014726    .008324   1319.666   26.39331
                          1.0        0.0        0.0        0.0        0.0
 116500     .1165  206524.395 -427790.47 221266.078 206524.395 -427790.47 221266.078 206524.397 -427790.47 221266.076        0.0
                          0.0        0.0 250704.561  -433919.9 183215.335 194607.888 -428073.24 233465.353 684624.457 -617135.23
                   -67489.225 634314.869 -649056.55 14741.6828 634314.869 -649056.55 14741.6798 626.001362 231.148182 -857.14954
                    .20552E-3 -.42002E-3 .243559E-3        0.0   251.9878    .840863   1.118989   6.992794   9.305749    .120247
                         380.    .052587    .025514     .21413    .301468   1.101664    .014726    .008324   1319.666   26.39331
                          1.0        0.0        0.0        0.0        0.0
 117000      .117  271570.753 -413980.83 142410.076 271570.753 -413980.83 142410.076 271570.754 -413980.83 142410.074        0.0
                          0.0        0.0 292242.575 -440076.27 147833.692 251960.441 -426312.46 174352.016 732318.842 -587909.96
                   -144408.88 685551.582  -556390.9 -129160.68 685551.582  -556390.9 -129160.68 481.532344 298.173923 -779.70627
                   .257673E-3 -.41783E-3 .160128E-3        0.0   251.9878    .840863   1.118989   6.992794   9.305749    .120247
                         380.    .052587    .025514     .21413    .301468   1.101664    .014726    .008324   1319.666   26.39331
                          1.0        0.0        0.0        0.0        0.0
 117500     .1175  311733.587 -402268.69 90535.1043 311733.587 -402268.69 90535.1043 311733.588 -402268.69 90535.1036        0.0
                          0.0        0.0 365129.123 -368386.76  3257.6355 303108.891 -414054.45 110945.554 733515.881 -371644.39
                   -361871.49 714002.279  -492803.8 -221198.48 714002.279 -492803.79 -221198.48 227.981824 97.3162092 -325.29803
                   .358634E-3 -.43313E-3 .891536E-4        0.0   251.9878    .840863   1.118989   6.992794   9.305749    .120247
                         380.    .052587    .025514     .21413    .301468   1.101664    .014726    .008324   1319.666   26.39331
                          1.0        0.0        0.0        0.0        0.0
 118000      .118  358359.143 -376290.13 17930.9854 358359.143 -376290.13 17930.9854 358359.143 -376290.13 17930.9846        0.0
                          0.0        0.0 388188.726 -339047.82 -49140.902 346793.795 -391601.04 44807.2447  727236.55 -289906.92
                   -437329.63 734649.271 -394221.11 -340428.16 734649.271 -394221.11 -340428.16  200.76741 172.259845 -373.02726
                   .393947E-3 -.40367E-3 .169799E-4        0.0   251.9878    .840863   1.118989   6.992794   9.305749    .120247
                         380.    .052587    .025514     .21413    .301468   1.101664    .014726    .008324   1319.666   26.39331
                          1.0        0.0        0.0        0.0        0.0
 118500     .1185  380337.565 -365450.03 -14887.531 380337.565 -365450.03 -14887.531 380337.565 -365450.03 -14887.531        0.0
                          0.0        0.0 367647.408 -388592.63 20945.2245 381939.485 -359505.12 -22434.368  756240.04 -409537.86
                   -346702.18 745787.599  -350562.5  -395225.1 745787.599  -350562.5  -395225.1 63.8035121 33.0169598 -96.820472
                   .399872E-3 -.40068E-3 -.15624E-4        0.0   251.9878    .840863   1.118989   6.992794   9.305749    .120247
                         380.    .052587    .025514     .21413    .301468   1.101664    .014726    .008324   1319.666   26.39331
                          1.0        0.0        0.0        0.0        0.0
 119000      .119  391630.912 -338025.78 -53605.128 391630.912 -338025.78 -53605.128 391630.912 -338025.78 -53605.128        0.0
                          0.0        0.0 409875.984 -335250.31 -74625.675 407680.557 -318556.98 -89123.572 745126.294 -260624.63
                   -484501.66 729656.697 -284420.66 -445236.04 729656.697 -284420.66 -445236.04 52.0422282 60.9391296 -112.98136
                     .3872E-3 -.32752E-3 -.59634E-4        0.0   251.9878    .840863   1.118989   6.992794   9.305749    .120247
                         380.    .052587    .025514     .21413    .301468   1.101664    .014726    .008324   1319.666   26.39331
                          1.0        0.0        0.0        0.0        0.0
 119500     .1195  417433.522 -296364.79 -121068.73 417433.522 -296364.79 -121068.73 417433.523 -296364.79 -121068.73        0.0
                          0.0        0.0 397468.246  -355219.6 -42248.643  423383.18 -269764.92 -153618.26  752687.85 -312970.96
                   -439716.89 713798.311 -175296.06 -538502.26 713798.311 -175296.05 -538502.26 189.938395   389.4373  -579.3757
                   .448004E-3 -.31811E-3 -.12985E-3        0.0   251.9878    .840863   1.118989   6.992794   9.305749    .120247
                         380.    .052587    .025514     .21413    .301468   1.101664    .014726    .008324   1319.666   26.39331
                          1.0        0.0        0.0        0.0        0.0
  % % % % % %   Suspended simulation;  plot data space exhausted;  SPY SPACE is required.   LIMBUF =  840000.
  % % % % % %   Suspended simulation;  plot data space exhausted;  SPY SPACE is required.   LIMBUF =  840000.
  +++  Time-sharing disabled.   Send  user-keyed interrupt to silence alarm.
   Current values.  INDBUF  INDBEG  LIMBUF  MFLUSH  NUMDCD  KCARD1  KCARD2
                    839994      50  840000    1007     230       1     231
Plot timespan now in memory (in sec) = 1.04985997E-01   1.19985000E-01
   ++++  Begin plot-data copy from memory to disk.   MFLUSH, INDBUF, N4, Tbeg,  Tend = 1008  839994       1  -1.00000E+00
1.00000E+19
 120000       .12   433468.57 -225167.47  -208301.1  433468.57 -225167.47  -208301.1  433468.57 -225167.46 -208301.11        0.0
                          0.0        0.0 426170.998 -303746.82 -122424.18 428660.705 -214330.35 -214330.35  729917.82 -181322.65
                   -548595.17 658636.035 -16866.361 -641769.67 658636.034 -16866.359 -641769.68 82.4237993 441.571614 -523.99541
                   .456179E-3 -.23756E-3 -.21869E-3        0.0   251.9878    .840863   1.118989   6.992794   9.305749    .120247
                         380.    .052587    .025514     .21413    .301468   1.101664    .014726    .008324   1319.666   26.39331
                          1.0        0.0        0.0        0.0        0.0

Extrema of output variables follow.   Order and column positioning are the same as for the preceding time-step loop output.
Variable maxima :  456281.742 483943.384 491655.117 456281.742 483943.384 491655.117 456281.742 483943.385 522295.574        0.0
                          0.0        0.0 538934.937 631634.702 686323.153 428660.705 428660.703 428660.703 862818.198 .1105955E7
                   .1044828E7 769827.369 846261.262 829688.407 769827.369 846261.263 829688.409 787.474553 1085.57934 1388.32102
                    .52599E-3 .556701E-3 .567108E-3        0.0   251.9878    .840863   1.118989   6.992794   9.305749    .120247
                         380.    .052587    .025514     .21413    .301468   1.101664    .014726    .008324   1319.666   26.39331
                          1.0        0.0        0.0        0.0        0.0
Times of maxima :     .099818    .066287    .072596    .099818    .066287    .072596    .099818    .066287     .05453        0.0
                          0.0        0.0    .061229    .067095     .07332        0.0    .006667    .113333    .077811    .083881
                      .072496    .098434    .066237    .071856    .098434    .066237    .071856    .073779    .061983    .068118
                      .099837    .066341    .072587        0.0        0.0        0.0        0.0        0.0        0.0        0.0
                          0.0        0.0        0.0        0.0        0.0        0.0        0.0        0.0        0.0        0.0
                          0.0        0.0        0.0        0.0        0.0
Variable minima :  -458591.16 -467776.35 -560822.98 -458591.16 -467776.35 -560822.98 -458591.16 -467776.35 -560822.98        0.0
                          0.0        0.0 -530591.22 -584413.88 -695283.73 -428660.71  -428660.7  -428660.7 -863026.18 -.107572E7
                   -.106705E7 -770038.73 -833733.43 -975082.54 -770038.73 -890641.12 -975082.54 -811.02503  -1100.661 -1296.5395
                   -.52864E-3 -.54271E-3 -.68009E-3        0.0   251.9878    .840863   1.118989   6.992794   9.305749    .120247
                         380.    .052587    .025514     .21413    .301468   1.101664    .014726    .008324   1319.666   26.39331
                          1.0        0.0        0.0        0.0        0.0
Times of minima :     .089544    .076833    .062146    .089544    .076833    .062146    .089544    .076833    .062146        0.0
                          0.0        0.0    .090091    .077511    .062989        .01    .016667    .103333    .088324    .094463
                      .061622    .067906    .095041    .062145    .067906    .054532    .062145    .084022    .072302    .078549
                      .089479    .076879    .062155        0.0        0.0        0.0        0.0        0.0        0.0        0.0
                          0.0        0.0        0.0        0.0        0.0        0.0        0.0        0.0        0.0        0.0
                          0.0        0.0        0.0        0.0        0.0

Blank card terminating all plot cards.            |BLANK PLOT

Memory storage figures for the preceding, now-completed data case.  -------------------------------  Present   Program
A value of  "-9999"  indicates that no figure is available.         28-Feb-22  20:06:26              figure     limit  (name)
     Size List 1.   Number of electric network nodes.                                                   37      6000  (LBUS)
     Size List 2.   Number of electric network branches.                                                39     10000  (LBRNCH)
     Size List 3.   Number of data values in R, L, C tables.                                            45    192000  (LDATA)
     Size List 4.   Number of electric network sources.                                                  3       900  (LEXCT)
     Size List 5.   Storage for [Y] and triangularized [Y].   No. times =    3     Factors =    66     189    420000  (LYMAT)
     Size List 6.   Number of entries in switch table.                  No. flops = 18                  21      1200  (LSWTCH)
     Size List 7.   Number of distinct ALPHANUMERIC data names plus program SPY variables.              25     15000  (LSIZE7)
     Size List 8.   History points of distributed lines.                                              3261    120000  (LPAST)
     Size List 9.   Number of nonlinear elements.                                                        0      2250  (LNONL)
     Size List 10.  Points of nonlinear characteristics.                                                 0      3800  (LCHAR)
     Size List 11.  Number of Type-59 S.M. outputs.                                                      0       720  (LSMOUT)
     Size List 12.  Total number of EMTP output variables.                                              55      2000  (LSIZ12)
     Size List 13.  Working space for batch/SPY plotting.                                            -9999     72800  (LSIZ13)
     Size List 14.  S.M./U.M. connections to TACS.                                                   -9999       510  (LBSTAC)
     Size List 15.  Character storage in bytes for MODELS.                                            3298     90000  (LCTACS)
     Size List 16.  Total number of Type-59 S.M. masses.                                                 0       800  (LIMASS)
     Size List 17.  Number of Type-59 Synchronous machines.                                              0        90  (LSYN)
     Size List 18.  Branch and switch power/energy outputs.                                              0       254  (MAXPE)
     Size List 19.  Total floating-point TACS table space.                                              23    120000  (LTACST)
     Size List 20.  Non-copied recursive convolution data.                                               0    100000  (LFSEM)
     Size List 21.  Total modal/phase [T] matrix storage.                                                9      3000  (LFD)
     Size List 22.  Total recursive convolution history.                                                 0     15000  (LHIST)
     Size List 23.  Giant vectors for renumbering, phasors;  also extrema accumulation.                  93    192000  (LSIZ23)
     Size List 24.  Peak phases of compensation for data.                                                0       120  (LCOMP)
     Size List 25.  Total table space for all U.M usage.                                             -9999     45000  (LSPCUM)
     Size List 26.  Square of max number of coupled phases.                                              9    260000  (LSIZ26)
     Size List 27.  Maximum number of MODELS top variables.                                             44       600  (LSIZ27)
     Size List 28.  MODELS.  Total work space is divided into INTEGER and REAL.  1st, REAL:           1780    210000  (LRTACS)
                             Second  and last,  statistics for INTEGER work space.                    6838         0  (LITACS)
     Size List 29.  RAM disk used by "TAPSAV" table saving (limit is "LABCOM" size LTLABL).          -9999       600  (LSIZ29)
     Size List 30.  Taku Noda frequency-dependent circuits.                                              0        19  (LSIZ30)
Timing figures characterizing central processor (CP) solution speed.  ----------------------------   CP sec  Wait sec  Real sec
     Data input time (through blank card ending branches) ....                                       0.031     0.000     0.031
     Node renumbering and phasor solution  ....                                                      0.016     0.000     0.016
     After phasor solution, but before time-step loop  ....                                          0.016     0.000     0.016
     Integration of equations (time-step loop)  ....                                                 1.078     0.000     1.078
     Plotting or STATISTICS termination overlays ....                                                0.000     0.000     0.000
                                                                                                    ---------------------------
                                                                                          Totals      1.141     0.000     1.141

