   ---   236   cards of disk file read into card cache cells  1   onward.
 Comment card is ignored.      |C   LBUS  LBRNCH   LDATA   LEXCT   LYMAT  LSWTCH
 Limit CIDEAL cards =   200    |CARDS        200 { Limit of CIDEAL will be 2 mor
 1st card (Lists  1-10).       |    6000   10000  192000     900  420000    120
 Comment card is ignored.      |C LSMOUT  LSIZ12  LSIZ13  LBSTAC  LCTACS  LIMASS
 2nd card (Lists 11-20).       |     720    2000   72800     510   90000     80
 Comment card is ignored.      |C    LFD   LHIST  LSIZ23   NCOMP  LSPCUM  LSIZ26
 3rd card (Lists 21-30).       |    3000   15000  192000     120   45000  26000
 4th card (Lists 31-32).       |     200     300     { Optional card for Lists
 Comment card is ignored.      |C  LWORK  LMARTI
 Supplemental offsets.         |  840000     742
 <===> Done with  "/"-card sorting by data class.    Remember that the source file appears different from interpreted input data.
Alternative Transients Program (ATP),  GNU Linux or DOS.  All rights reserved by Can/Am user group of Portland, Oregon, USA.
 Date (dd-mth-yy) and time of day (hh.mm.ss) = 28-Feb-22  19:11:15   Name of disk plot file is  pdraw6.3\bernal\energizacion513.pl4
Consult the 860-page ATP Rule Book of the Can/Am EMTP User Group in Portland,  Oregon, USA.  Source code date is 12 August 2008.
Total size of LABCOM tables = 10913436 INTEGER words.  31 VARDIM  List Sizes follow:  6002  10K  192K  900  420K  1200  15K
  120K  2250  3800  720  2K  72800  510  90K  800  90  254  120K  100K  3K  15K  192K  120  45K  260K  600  210K  1100  60  200
--------------------------------------------------+--------------------------------------------------------------------------------
Descriptive interpretation of input data cards.   |  Input data card images are shown below, all 80 columns, character by character
                                                  0         1         2         3         4         5         6         7         8
                                                  012345678901234567890123456789012345678901234567890123456789012345678901234567890
--------------------------------------------------+--------------------------------------------------------------------------------
Comment card.   NUMDCD = 1.                       |C data:C:\ATP\ATPDRAW6.3\BERNAL\ENERGIZACION513.ATP
Marker card preceding new EMTP data case.         |BEGIN NEW DATA CASE
Comment card.   NUMDCD = 3.                       |C --------------------------------------------------------
Comment card.   NUMDCD = 4.                       |C Generated by ATPDRAW  febrero, lunes 28, 2022
Comment card.   NUMDCD = 5.                       |C A Bonneville Power Administration program
Comment card.   NUMDCD = 6.                       |C by H. K. Høidalen at SEfAS/NTNU - NORWAY 1994-2016
Comment card.   NUMDCD = 7.                       |C --------------------------------------------------------
Comment card.   NUMDCD = 8.                       |C  dT  >< Tmax >< Xopt >< Copt ><Epsiln>
Misc. data.     1.000E-06   1.200E-01   5.000E+01 |   1.E-6     .12     50.
Misc. data.    500    1  0  1  1  0  0  0  0  0   |     500       1       0       1       1       0       0       0       0
  ///  Warning.  Nonzero XOPT or COPT differs from the power frequency of  6.00000000E+01  Hz.   Did the user really want this?
No TACS data,  but MODELS data begins (next).     |MODELS
      Another ordinary MODELS data card.          |OUTPUT
      Another ordinary MODELS data card.          |  AnVol
      Another ordinary MODELS data card.          |  LONG
      Another ordinary MODELS data card.          |  R0F
      Another ordinary MODELS data card.          |  R1F
      Another ordinary MODELS data card.          |  X0F
      Another ordinary MODELS data card.          |  X1F
      Another ordinary MODELS data card.          |  RDIVX
      Another ordinary MODELS data card.          |  RINSER
      Another ordinary MODELS data card.          |  CLOSE1
      Another ordinary MODELS data card.          |  RPpos
      Another ordinary MODELS data card.          |  RPcero
      Another ordinary MODELS data card.          |  LPpos
      Another ordinary MODELS data card.          |  LPcero
      Another ordinary MODELS data card.          |  CPpos
      Another ordinary MODELS data card.          |  CPcero
      Another ordinary MODELS data card.          |  Xp
      Another ordinary MODELS data card.          |  CR
      Another ordinary MODELS data card.          |  SIMET
      Another ordinary MODELS data card.          |  ENC1
      Another ordinary MODELS data card.          |  ENC2
      Another ordinary MODELS data card.          |  ENC1AS
      Another ordinary MODELS data card.          |  ENC2AS
      Another ordinary MODELS data card.          |MODEL DEFAULT
      Another ordinary MODELS data card.          |DATA AnVol,LONG,R0F,R1F,X0F,X1F,RDIVX,RINSER,CLOSE1,RPpos,RPcero,LPpos,LPcero
      Another ordinary MODELS data card.          |OUTPUT o1,o2,o3, o4, o5, o6, o7, o8, o9, o10, o11, o12, o13
      Another ordinary MODELS data card.          |VAR o1,o2,o3, o4, o5, o6, o7, o8, o9, o10, o11, o12, o13
      Another ordinary MODELS data card.          |INIT
      Another ordinary MODELS data card.          |  o1:=AnVol
      Another ordinary MODELS data card.          |  o2:=LONG
      Another ordinary MODELS data card.          |  o3:=R0F
      Another ordinary MODELS data card.          |  o4:=R1F
      Another ordinary MODELS data card.          |  o5:=X0F
      Another ordinary MODELS data card.          |  O6:=X1F
      Another ordinary MODELS data card.          |  o7:=RDIVX
      Another ordinary MODELS data card.          |  o8:=RINSER
      Another ordinary MODELS data card.          |  o9:=CLOSE1
      Another ordinary MODELS data card.          |  o10:=RPpos
      Another ordinary MODELS data card.          |  o11:=RPcero
      Another ordinary MODELS data card.          |  o12:=LPpos
      Another ordinary MODELS data card.          |  o13:=LPcero
      Another ordinary MODELS data card.          |
      Another ordinary MODELS data card.          |ENDINIT
      Another ordinary MODELS data card.          |EXEC
      Another ordinary MODELS data card.          |ENDEXEC
      Another ordinary MODELS data card.          |ENDMODEL
      Another ordinary MODELS data card.          |MODEL DEFAULT1
      Another ordinary MODELS data card.          |DATA CPpos,CPcero,Xp,CR,SIMET,ENC1,ENC2,ENC1AS,ENC2AS
      Another ordinary MODELS data card.          |OUTPUT o1, o2, o3, o4, o5, o6, o7, o8, o9
      Another ordinary MODELS data card.          |VAR o1, o2, o3, o4, o5, o6, o7, o8, o9
      Another ordinary MODELS data card.          |INIT
      Another ordinary MODELS data card.          |  o1:=CPpos
      Another ordinary MODELS data card.          |  o2:=CPcero
      Another ordinary MODELS data card.          |  o3:=Xp
      Another ordinary MODELS data card.          |  o4:=CR
      Another ordinary MODELS data card.          |  o5:=SIMET
      Another ordinary MODELS data card.          |  o6:=ENC1
      Another ordinary MODELS data card.          |  o7:=ENC2
      Another ordinary MODELS data card.          |  o8:=ENC1AS
      Another ordinary MODELS data card.          |  o9:=ENC2AS
      Another ordinary MODELS data card.          |
      Another ordinary MODELS data card.          |ENDINIT
      Another ordinary MODELS data card.          |EXEC
      Another ordinary MODELS data card.          |ENDEXEC
      Another ordinary MODELS data card.          |ENDMODEL
      Another ordinary MODELS data card.          |USE DEFAULT AS DEFAULT
      Another ordinary MODELS data card.          |DATA
      Another ordinary MODELS data card.          |  AnVol:=      0.0
      Another ordinary MODELS data card.          |  LONG:= 383.1135
      Another ordinary MODELS data card.          |  R0F:=  3.67542
      Another ordinary MODELS data card.          |  R1F:= 2.899907
      Another ordinary MODELS data card.          |  X0F:= 12.66114
      Another ordinary MODELS data card.          |  X1F:= 9.989638
      Another ordinary MODELS data card.          |  RDIVX:= 0.290292
      Another ordinary MODELS data card.          |  RINSER:=     400.
      Another ordinary MODELS data card.          |  CLOSE1:= 0.055726
      Another ordinary MODELS data card.          |  RPpos:= 0.027707
      Another ordinary MODELS data card.          |  RPcero:= 0.220911
      Another ordinary MODELS data card.          |  LPpos:= 0.349856
      Another ordinary MODELS data card.          |  LPcero:= 1.232395
      Another ordinary MODELS data card.          |OUTPUT
      Another ordinary MODELS data card.          |  AnVol:=o1
      Another ordinary MODELS data card.          |  LONG:=o2
      Another ordinary MODELS data card.          |  R0F:=o3
      Another ordinary MODELS data card.          |  R1F:=o4
      Another ordinary MODELS data card.          |  X0F:=o5
      Another ordinary MODELS data card.          |  X1F:=o6
      Another ordinary MODELS data card.          |  RDIVX:=o7
      Another ordinary MODELS data card.          |  RINSER:=o8
      Another ordinary MODELS data card.          |  CLOSE1:=o9
      Another ordinary MODELS data card.          |  RPpos:=o10
      Another ordinary MODELS data card.          |  RPcero:=o11
      Another ordinary MODELS data card.          |  LPpos:=o12
      Another ordinary MODELS data card.          |  LPcero:=o13
      Another ordinary MODELS data card.          |ENDUSE
      Another ordinary MODELS data card.          |USE DEFAULT1 AS DEF
      Another ordinary MODELS data card.          |DATA
      Another ordinary MODELS data card.          |  CPpos:= 0.015939
      Another ordinary MODELS data card.          |  CPcero:= 0.008473
      Another ordinary MODELS data card.          |  Xp:= 801.9593
      Another ordinary MODELS data card.          |  CR:= 16.03919
      Another ordinary MODELS data card.          |  SIMET:=       1.
      Another ordinary MODELS data card.          |  ENC1:=       1.
      Another ordinary MODELS data card.          |  ENC2:=      0.0
      Another ordinary MODELS data card.          |  ENC1AS:=      0.0
      Another ordinary MODELS data card.          |  ENC2AS:=      0.0
      Another ordinary MODELS data card.          |OUTPUT
      Another ordinary MODELS data card.          |  CPpos:=o1
      Another ordinary MODELS data card.          |  CPcero:=o2
      Another ordinary MODELS data card.          |  Xp:=o3
      Another ordinary MODELS data card.          |  CR:=o4
      Another ordinary MODELS data card.          |  SIMET:=o5
      Another ordinary MODELS data card.          |  ENC1:=o6
      Another ordinary MODELS data card.          |  ENC2:=o7
      Another ordinary MODELS data card.          |  ENC1AS:=o8
      Another ordinary MODELS data card.          |  ENC2AS:=o9
      Another ordinary MODELS data card.          |ENDUSE
      Another ordinary MODELS data card.          |RECORD
      Another ordinary MODELS data card.          |  DEFAULT.o1 AS AnVOL
      Another ordinary MODELS data card.          |  DEFAULT.o2 AS LONG
      Another ordinary MODELS data card.          |  DEFAULT.o3 AS R0F
      Another ordinary MODELS data card.          |  DEFAULT.o4 AS R1F
      Another ordinary MODELS data card.          |  DEFAULT.o5 AS X0F
      Another ordinary MODELS data card.          |  DEFAULT.o6 AS X1F
      Another ordinary MODELS data card.          |  DEFAULT.o7 AS RDIVX
      Another ordinary MODELS data card.          |  DEFAULT.o8 AS RINSER
      Another ordinary MODELS data card.          |  DEFAULT.o9 AS CLOSE1
      Another ordinary MODELS data card.          |  DEFAULT.o10 AS RPpos
      Another ordinary MODELS data card.          |  DEFAULT.o11 AS RPcero
      Another ordinary MODELS data card.          |  DEFAULT.o12 AS LPpos
      Another ordinary MODELS data card.          |  DEFAULT.o13 AS LPcero
      Another ordinary MODELS data card.          |  DEF.o1 AS CPpos
      Another ordinary MODELS data card.          |  DEF.o2 AS CPcero
      Another ordinary MODELS data card.          |  DEF.o3 AS Xp
      Another ordinary MODELS data card.          |  DEF.o4 AS CR
      Another ordinary MODELS data card.          |  DEF.o5 AS SIMET
      Another ordinary MODELS data card.          |  DEF.o6 AS ENC1
      Another ordinary MODELS data card.          |  DEF.o7 AS ENC2
      Another ordinary MODELS data card.          |  DEF.o8 AS ENC1AS
      Another ordinary MODELS data card.          |  DEF.o9 AS ENC2AS
Termination of data for Laurent Dube`s MODELS.    |ENDMODELS
Comment card.   NUMDCD = 153.                     |C        1         2         3         4         5         6         7         8
Comment card.   NUMDCD = 154.                     |C 345678901234567890123456789012345678901234567890123456789012345678901234567890
Optional blank card follows last of MODELS data.  |BLANK MODELS
Comment card.   NUMDCD = 156.                     |C < n1 >< n2 ><ref1><ref2>< R  >< L  >< C  >
Comment card.   NUMDCD = 157.                     |C < n1 >< n2 ><ref1><ref2>< R  >< A  >< B  ><Leng><><>0
1st of coupled R-L.   3.67540E+00  4.03016E-02    |51IFUENASB1A              3.675412.661135779
2nd coil. 2.900E+00 3.180E-02 0.000E+00 0.000E+00 |52IFUENBSB1B              2.89999.9896381667
Zca, Zcc= 2.585E-01 2.835E-03 3.158E+00 3.463E-02 |53IFUENCSB1C
Series R-L-C.   1.000E+09  0.000E+00  0.000E+00   |  SB1A                      1.E9                                               0
Series R-L-C.   1.000E+09  0.000E+00  0.000E+00   |  SB1B                      1.E9                                               0
Series R-L-C.   1.000E+09  0.000E+00  0.000E+00   |  SB1C                      1.E9                                               0
Series R-L-C.   8.020E+00  1.276E+00  0.000E+00   |  RSNSHA                  8.0196400.98                                         0
Series R-L-C.   8.020E+00  1.276E+00  0.000E+00   |  RSNSHB                  8.0196400.98                                         0
Series R-L-C.   8.020E+00  1.276E+00  0.000E+00   |  RSNSHC                  8.0196400.98                                         0
Series R-L-C.   1.000E+09  0.000E+00  0.000E+00   |  RSNNHA                    1.E9                                               0
Series R-L-C.   1.000E+09  0.000E+00  0.000E+00   |  RSNNHB                    1.E9                                               0
Series R-L-C.   1.000E+09  0.000E+00  0.000E+00   |  RSNNHC                    1.E9                                               0
Series R-L-C.   1.000E+09  0.000E+00  0.000E+00   |  SE2A                      1.E9                                               0
Series R-L-C.   1.000E+09  0.000E+00  0.000E+00   |  SE2B                      1.E9                                               0
Series R-L-C.   1.000E+09  0.000E+00  0.000E+00   |  SE2C                      1.E9                                               0
Series R-L-C.   2.500E+02  0.000E+00  3.000E-10   |  X0001B                    250.       .0003                                   0
Series R-L-C.   2.500E+02  0.000E+00  3.000E-10   |  X0002B                    250.       .0003                                   0
Series R-L-C.   1.000E-06  0.000E+00  0.000E+00   |  X0001ALN1A               1.E-6                                               0
Series R-L-C.   1.000E-06  0.000E+00  0.000E+00   |  SB1A  X0002A             1.E-6                                               0
Series R-L-C.   1.000E-06  0.000E+00  0.000E+00   |  X0001BLN1B               1.E-6                                               0
Series R-L-C.   1.000E-06  0.000E+00  0.000E+00   |  SB1B  X0002B             1.E-6                                               0
Series R-L-C.   1.000E-06  0.000E+00  0.000E+00   |  X0001CLN1C               1.E-6                                               0
Series R-L-C.   1.000E-06  0.000E+00  0.000E+00   |  SB1C  X0002C             1.E-6                                               0
Series R-L-C.   4.000E+02  0.000E+00  0.000E+00   |  XX0005X0002A              400.                                               0
Series R-L-C.   4.000E+02  0.000E+00  0.000E+00   |  XX0003X0002B              400.                                               0
Series R-L-C.   4.000E+02  0.000E+00  0.000E+00   |  XX0004X0002C              400.                                               0
Series R-L-C.   2.500E+02  0.000E+00  3.000E-10   |  X0001A                    250.       .0003                                   0
Series R-L-C.   1.000E+06  0.000E+00  0.000E+00   |  X0001AX0002A              1.E6                                               0
Series R-L-C.   1.000E+06  0.000E+00  0.000E+00   |  X0001BX0002B              1.E6                                               0
Series R-L-C.   1.000E+06  0.000E+00  0.000E+00   |  X0001CX0002C              1.E6                                               0
Series R-L-C.   2.500E+02  0.000E+00  3.000E-10   |  X0002C                    250.       .0003                                   0
Series R-L-C.   2.500E+02  0.000E+00  3.000E-10   |  X0002A                    250.       .0003                                   0
Series R-L-C.   2.500E+02  0.000E+00  3.000E-10   |  X0001C                    250.       .0003                                   0
Series R-L-C.   1.250E+02  0.000E+00  6.000E-10   |  X0001AX0002A              125.       .0006                                   0
Series R-L-C.   1.250E+02  0.000E+00  6.000E-10   |  X0001BX0002B              125.       .0006                                   0
Series R-L-C.   1.250E+02  0.000E+00  6.000E-10   |  X0001CX0002C              125.       .0006                                   0
 2.209E-01 1.232E+00 8.470E-03 6.805E+02 2.208E-03|-1LN1A  VFF2A             .220911.2324.00847383.11 0 0                         0
 2.771E-02 3.499E-01 1.594E-02 2.643E+02 1.614E-03|-2LN1B  VFF2B             .02771.34986.01594383.11 0 0                         0
3rd or later transposed distributed phase.        |-3LN1C  VFF2C                                                                  0
Blank card ending branches.  IBR, NTOT = 39  31   |BLANK BRANCH
Comment card.   NUMDCD = 198.                     |C < n 1>< n 2>< Tclose ><Top/Tde ><   Ie   ><Vf/CLOP ><  type  >
Switch.  -1.00E+00  1.00E+01  0.00E+00  0.00E+00  |  LN1A  COMPA        -1.       10.                                             0
Switch.  -1.00E+00  1.00E+01  0.00E+00  0.00E+00  |  LN1B  COMPB        -1.       10.                                             0
Switch.  -1.00E+00  1.00E+01  0.00E+00  0.00E+00  |  LN1C  COMPC        -1.       10.                                             0
Switch.  -1.00E+00  1.00E+01  0.00E+00  0.00E+00  |  VFF2A RSNNHA       -1.       10.                                             0
Switch.  -1.00E+00  1.00E+01  0.00E+00  0.00E+00  |  VFF2B RSNNHB       -1.       10.                                             0
Switch.  -1.00E+00  1.00E+01  0.00E+00  0.00E+00  |  VFF2C RSNNHC       -1.       10.                                             0
Switch.   2.00E+00 -1.00E+00  0.00E+00  0.00E+00  |  VFF2A SE2A          2.       -1.                                             0
Switch.   2.00E+00 -1.00E+00  0.00E+00  0.00E+00  |  VFF2B SE2B          2.       -1.                                             0
Switch.   2.00E+00 -1.00E+00  0.00E+00  0.00E+00  |  VFF2C SE2C          2.       -1.                                             0
Switch.   5.57E-02  1.00E+03  0.00E+00  0.00E+00  |  X0001BXX0003.055726467      1.E3                                             0
Switch.   5.57E-02  1.00E+03  0.00E+00  0.00E+00  |  X0001CXX0004.055726467      1.E3                                             0
Switch.   6.32E-02  1.00E+03  0.00E+00  0.00E+00  |  XX0005X0002A.063226467      1.E3                                             0
Switch.   6.32E-02  1.00E+03  0.00E+00  0.00E+00  |  XX0003X0002B.063226467      1.E3                                             0
Switch.   6.32E-02  1.00E+03  0.00E+00  0.00E+00  |  XX0004X0002C.063226467      1.E3                                             0
Switch.   5.57E-02  1.00E+03  0.00E+00  0.00E+00  |  X0001AXX0005.055726467      1.E3                                             0
Permanently-closed switch used for metering.      |  VFUENAIFUENA                                        MEASURING                1
Permanently-closed switch used for metering.      |  VFUENBIFUENB                                        MEASURING                1
Permanently-closed switch used for metering.      |  VFUENCIFUENC                                        MEASURING                1
Permanently-closed switch used for metering.      |  COMPA RSNSHA                                        MEASURING                1
Permanently-closed switch used for metering.      |  COMPB RSNSHB                                        MEASURING                1
Permanently-closed switch used for metering.      |  COMPC RSNSHC                                        MEASURING                1
Blank card ending switches.   KSWTCH = 21.        |BLANK SWITCH
Comment card.   NUMDCD = 221.                     |C < n 1><>< Ampl.  >< Freq.  ><Phase/T0><   A1   ><   T1   >< TSTART >< TSTOP  >
Source.   4.29E+05  5.00E+01  0.00E+00 -1.00E+00  |14VFUENA  428660.705       50.                                     -1.      100.
Source.   4.29E+05  5.00E+01 -1.20E+02 -1.00E+00  |14VFUENB  428660.705       50.     -120.                           -1.      100.
Source.   4.29E+05  5.00E+01 -2.40E+02 -1.00E+00  |14VFUENC  428660.705       50.     -240.                           -1.      100.
Blank card ends electric sources.  KCONST = 3     |BLANK SOURCE
Pi-equivalent branches of distributed circuits are added to the table of List Size 3 between indices  40   and  45.

Sinusoidal steady-state phasor solution, branch by branch.   All flows are away from a bus,  and the real part,  magnitude,  or  "P"
is printed above the imaginary part,  the angle,  or  "Q".   The first solution frequency  =  5.00000000E+01  Hertz.
  Bus K                        Phasor  node  voltage              Phasor  branch  current               Power flow       Power loss
             Bus M         Rectangular            Polar          Rectangular            Polar            P  and  Q        P  and  Q

 IFUENA                    428660.705       428660.705      .42928679594651  .44577030729366      92009.190298812  .28812125639536
                                  0.0              0.0      .12010001536495       15.6298337      -25741.07862843        0.9925263

            SB1A      428660.65986692  428660.65989199      -.4292867959465  .44577030729366      -92008.90217756
                      -4.636697795803       -0.0006198       -.120100015365     -164.3701663      25742.071154754

 IFUENB                  -214330.3525       428660.705      -.1106337336698  .44577030729573      92009.190299061  .28812125639845
                      -371231.0601341     -120.0000000      -.4318232784842     -104.3701663      -25741.07862918        0.9925263

            SB1B      -214334.3454315  428660.65989199      .11063373366982  .44577030729573       -92008.9021778
                      -371228.7026989     -120.0006198      .43182327848416       75.6298337      25742.071155513

 IFUENC                  -214330.3525       428660.705      -.3186530622782  .44577030729817      92009.190299676  .28812125640105
                      371231.06013415      120.0000000      .31172326311876      135.6298337      -25741.07862892        0.9925263

            SB1C      -214326.3144354  428660.65989199      .31865306227823  .44577030729817      -92008.90217842
                      371233.33939665      119.9993802      -.3117232631188      -44.3701663      25742.071155252

 SB1A                 428660.65986692  428660.65989199      .42866065987E-3  .42866065989E-3       91.87498066952   91.87498066952
                      -4.636697795803       -0.0006198      -.4636697796E-8       -0.0006198      -.179994501E-20        0.0000000

            TERRA                 0.0              0.0      -.4286606599E-3  .42866065989E-3                  0.0
                                  0.0              0.0      .46366977958E-8      179.9993802                  0.0

 SB1B                 -214334.3454315  428660.65989199      -.2143343454E-3  .42866065989E-3       91.87498066952   91.87498066952
                      -371228.7026989     -120.0006198      -.3712287027E-3     -120.0006198      .2269018307E-14        0.0000000

            TERRA                 0.0              0.0      .21433434543E-3  .42866065989E-3                  0.0
                                  0.0              0.0       .3712287027E-3       59.9993802                  0.0

 SB1C                 -214326.3144354  428660.65989199      -.2143263144E-3  .42866065989E-3       91.87498066952   91.87498066952
                      371233.33939665      119.9993802       .3712333394E-3      119.9993802      .2327998905E-14        0.0000000

            TERRA                 0.0              0.0      .21432631444E-3  .42866065989E-3                  0.0
                                  0.0              0.0      -.3712333394E-3      -60.0006198                  0.0

 RSNSHA               -13.19562005736  1098.8513556589      2.7384632216691  2.7398664554265      30.101040082583  30.101040082583
                      1098.7721226191       90.6880562      .08767768893675        1.8338191      1505.0520041292     1505.0520041

            TERRA                 0.0              0.0      -2.738463221669  2.7398664554265                  0.0
                                  0.0              0.0      -.0876776889367     -178.1661809                  0.0

 RSNSHB               958.16238118694  1098.8513556589       -1.29330050487  2.7398664554265      30.101040082583  30.101040082583
                      -537.9583191212      -29.3119438      -2.415417561763     -118.1661809      1505.0520041291     1505.0520041

            TERRA                 0.0              0.0      1.2933005048702  2.7398664554265                  0.0
                                  0.0              0.0      2.4154175617632       61.8338191                  0.0

 RSNSHC               -944.9667611296  1098.8513556589      -1.445162716799  2.7398664554265      30.101040082583  30.101040082583
                      -560.8138034979     -149.3119438      2.3277398728264      121.8338191      1505.0520041292     1505.0520041

            TERRA                 0.0              0.0      1.4451627167989  2.7398664554265                  0.0
                                  0.0              0.0      -2.327739872826      -58.1661809                  0.0

 RSNNHA               -1.071627135226  1256.9786752529      -.1071627135E-8  .12569786753E-5      .78999769502E-3  .78999769502E-3
                      1256.9782184492       90.0488471      .12569782184E-5       90.0488471      .6100457018E-23        0.0000000

            TERRA                 0.0              0.0      .10716271352E-8  .12569786753E-5                  0.0
                                  0.0              0.0      -.1256978218E-5      -89.9511529                  0.0

 RSNNHB               1089.1108827484  1256.9786752529      .10891108827E-5  .12569786753E-5      .78999769502E-3  .78999769502E-3
                      -627.5610529021      -29.9511529      -.6275610529E-6      -29.9511529      -.169935985E-19        0.0000000

            TERRA                 0.0              0.0      -.1089110883E-5  .12569786753E-5                  0.0
                                  0.0              0.0       .6275610529E-6      150.0488471                  0.0

 RSNNHC               -1088.039255613  1256.9786752529      -.1088039256E-5  .12569786753E-5      .78999769502E-3  .78999769502E-3
                      -629.4171655471     -149.9511529      -.6294171655E-6     -149.9511529      .2848148285E-19        0.0000000

            TERRA                 0.0              0.0      .10880392556E-5  .12569786753E-5                  0.0
                                  0.0              0.0      .62941716555E-6       30.0488471                  0.0

 X0001B               958.16238104147  1098.8513557335      .50703504863E-4  .10356430037E-3      .13406955388E-5  .13406955388E-5
                      -537.9583195325      -29.3119438      .90303482244E-4       60.6867062      -.0569008859167       -0.0569009

            TERRA                 0.0              0.0      -.5070350486E-4  .10356430037E-3                  0.0
                                  0.0              0.0      -.9030348224E-4     -119.3132938                  0.0

 X0002B               -214334.3454314  428660.65989157      .03498700497263  .04040031538873       .2040231854384   .2040231854384
                      -371228.7026984     -120.0006198      -.0202013605125      -30.0019698      -8659.012924778    -8659.0129248

            TERRA                 0.0              0.0      -.0349870049726  .04040031538873                  0.0
                                  0.0              0.0      .02020136051246      149.9980302                  0.0

 X0001A               -13.19561962837  1098.8513557335      .42898730256979  .43632827763017      40.956278693061  .95191182933E-7
                      1098.7721226988       90.6880562      .07970106707944       10.5249153      236.20549701029        0.0000000

            LN1A      -13.19562005736  1098.8513556589      -.4289873025698  .43632827763017      -40.95627859787
                      1098.7721226191       90.6880562      -.0797010670794     -169.4750847      -236.2054970103

 SB1A                 428660.65986692  428660.65989199      .42887404561043  .44537283452395      91920.437261832  .99178485868E-7
                      -4.636697795803       -0.0006198      .12010001970708       15.6441402       -25742.0711285              0.0

            X0002A    428660.65986649  428660.65989157      -.4288740456104  .44537283452395      -91920.43726173
                      -4.636697915903       -0.0006198      -.1201000197071     -164.3558598      25742.071128505

 X0001B               958.16238104147  1098.8513557335       -.145470608004  .43632822273493      40.956202442534  .95191158976E-7
                      -537.9583195325      -29.3119438      -.4113643399251     -109.4751020      236.20547962067              0.0

            LN1B      958.16238118694  1098.8513556589      .14547060800396  .43632822273493      -40.95620234734
                      -537.9583191212      -29.3119438      .41136433992506       70.5248980      -236.2054796207

 SB1B                 -214334.3454315  428660.65989199      -.1104199327528  .44539769584744      91924.757766253  .99189549019E-7
                      -371228.7026989     -120.0006198      -.4314933903515     -104.3540557      -25746.40249555              0.0

            X0002B    -214334.3454314  428660.65989157      .11041993275285  .44539769584744      -91924.75776615
                      -371228.7026984     -120.0006198      .43149339035153       75.6459443      25746.402495549

 X0001C               -944.9667614131  1098.8513557335      -.2835167833837  .43632828057141      40.956265714036  .95191184213E-7
                      -560.8138031662     -149.3119438      .33166338653245      130.5249120      236.20550090087              0.0

            LN1C      -944.9667611296  1098.8513556589      .28351678338367  .43632828057141      -40.95626561884
                      -560.8138034979     -149.3119438      -.3316633865325      -49.4750880      -236.2055009009

 SB1C                 -214326.3144354  428660.65989199      -.3184541128576  .44536903182085      91918.813958433  .99176787671E-7
                      371233.33939665      119.9993802      .31135277822614      135.6460064      -25744.84515715              0.0

            X0002C    -214326.3144351  428660.65989157      .31845411285758  .44536903182085      -91918.81395833
                      371233.33939634      119.9993802      -.3113527782261      -44.3539936      25744.845157147

 XX0005               428660.65986649  428660.65989157                  0.0              0.0                  0.0              0.0
                      -4.636697915903       -0.0006198                  0.0              0.0                  0.0              0.0

            X0002A    428660.65986649  428660.65989157                  0.0              0.0                  0.0
                      -4.636697915903       -0.0006198                  0.0              0.0                  0.0

 XX0003               -214334.3454314  428660.65989157                  0.0              0.0                  0.0              0.0
                      -371228.7026984     -120.0006198                  0.0              0.0                  0.0              0.0

            X0002B    -214334.3454314  428660.65989157                  0.0              0.0                  0.0
                      -371228.7026984     -120.0006198                  0.0              0.0                  0.0

 XX0004               -214326.3144351  428660.65989157                  0.0              0.0                  0.0              0.0
                      371233.33939634      119.9993802                  0.0              0.0                  0.0              0.0

            X0002C    -214326.3144351  428660.65989157                  0.0              0.0                  0.0
                      371233.33939634      119.9993802                  0.0              0.0                  0.0

 X0001A               -13.19561962837  1098.8513557335      -.1035568621E-3  .10356430037E-3      .13406955388E-5  .13406955388E-5
                      1098.7721226988       90.6880562      -.1241217849E-5     -179.3132938      -.0569008859167       -0.0569009

            TERRA                 0.0              0.0       .1035568621E-3  .10356430037E-3                  0.0
                                  0.0              0.0      .12412178494E-5        0.6867062                  0.0

 X0001A               -13.19561962837  1098.8513557335      -.4286738554861   .4286752755739      3.4345059968272  91881.245944179
                      1098.7721226988       90.6880562      .00110340882061      179.8525207      -235.5001609874        0.0000000

            X0002A    428660.65986649  428660.65989157      .42867385548612   .4286752755739      91877.811438182
                      -4.636697915903       -0.0006198      -.0011034088206       -0.1474793      235.50016098743

 X0001B               958.16238104147  1098.8513557335      .21529250781247   .4286752755739      3.4345059968272  91881.245944179
                      -537.9583195325      -29.3119438      .37069074437889       59.8525207      -235.5001609874        0.0000000

            X0002B    -214334.3454314  428660.65989157      -.2152925078125   .4286752755739      91877.811438182
                      -371228.7026984     -120.0006198      -.3706907443789     -120.1474793      235.50016098743

 X0001C               -944.9667614131  1098.8513557335      .21338134767365   .4286752755739      3.4345059968273  91881.245944179
                      -560.8138031662     -149.3119438      -.3717941531995      -60.1474793      -235.5001609874        0.0000000

            X0002C    -214326.3144351  428660.65989157      -.2133813476736   .4286752755739      91877.811438182
                      371233.33939634      119.9993802       .3717941531995      119.8525207      235.50016098743

 X0002C               -214326.3144351  428660.65989157      -.0349883938811  .04040031538873      .20402318543814  .20402318543814
                      371233.33939634      119.9993802      -.0201989548524     -150.0019698      -8659.012924778    -8659.0129248

            TERRA                 0.0              0.0      .03498839388112  .04040031538873                  0.0
                                  0.0              0.0       .0201989548524       29.9980302                  0.0

 X0002A               428660.65986649  428660.65989157      .13889084879E-5  .04040031538873      .20402318543865  .20402318543865
                      -4.636697915903       -0.0006198      .04040031536486       89.9980302      -8659.012924778    -8659.0129248

            TERRA                 0.0              0.0      -.1388908488E-5  .04040031538873                  0.0
                                  0.0              0.0      -.0404003153649      -90.0019698                  0.0

 X0001C               -944.9667614131  1098.8513557335      .52853357242E-4  .10356430037E-3      .13406955388E-5  .13406955388E-5
                      -560.8138031662     -149.3119438      -.8906226439E-4      -59.3132938      -.0569008859167       -0.0569009

            TERRA                 0.0              0.0      -.5285335724E-4  .10356430037E-3                  0.0
                                  0.0              0.0      .89062264394E-4      120.6867062                  0.0

 X0001A               -13.19561962837  1098.8513557335      -.2098915412E-3  .08080338576868      -44.39071926225  .40807419698016
                      1098.7721226988       90.6880562      -.0808031131654      -90.1488293       -.648435060182   -17319.2068260

            X0002A    428660.65986649  428660.65989157      .20989154119E-3  .08080338576868      44.798793459228
                      -4.636697915903       -0.0006198      .08080311316542       89.8511707      -17318.55839098

 X0001B               958.16238104147  1098.8513557335      -.0698726029355  .08080338576868      -44.39071926225  .40807419698009
                      -537.9583195325      -29.3119438      .04058332798942      149.8511707       -.648435060182   -17319.2068260

            X0002B    -214334.3454314  428660.65989157      .06987260293553  .08080338576868      44.798793459228
                      -371228.7026984     -120.0006198      -.0405833279894      -30.1488293      -17318.55839098

 X0001C               -944.9667614131  1098.8513557335      .07008249447671  .08080338576868      -44.39071926225  .40807419698063
                      -560.8138031662     -149.3119438        .040219785176       29.8511707       -.648435060182   -17319.2068260

            X0002C    -214326.3144351  428660.65989157      -.0700824944767  .08080338576868      44.798793459228
                      371233.33939634      119.9993802       -.040219785176     -150.1488293      -17318.55839098

 LN1A                 -13.19562005736  1098.8513556589      -2.309475917969  2.3094896933871      10.855180394242  10.854390396547
                      1098.7721226191       90.6880562      -.0079767276364     -179.8021062      -1268.846507196    -1268.8465072

            VFF2A     -1.071627135226  1256.9786752529       .1071626847E-8  .12569786757E-5      -.7899976953E-3
                      1256.9782184492       90.0488471      -.1256978219E-5      -89.9511529       -.18133439E-12

 LN1B                 958.16238118694  1098.8513556589      1.1478299102121  2.3094896933871      10.855180394241  10.854390396546
                      -537.9583191212      -29.3119438      2.0040531782075       60.1978938      -1268.846507196    -1268.8465072

            VFF2B     1089.1108827484  1256.9786752529      -.1089110882E-5  .12569786754E-5      -.7899976951E-3
                      -627.5610529021      -29.9511529      .62756105373E-6      150.0488470      -.552037308E-12

 LN1C                 -944.9667611296  1098.8513556589      1.1616460077566  2.3094896933871      10.855180394241  10.854390396546
                      -560.8138034979     -149.3119438      -1.996076450571      -59.8021062      -1268.846507196    -1268.8465072

            VFF2C     -1088.039255613  1256.9786752529      .10880392547E-5  .12569786749E-5      -.7899976948E-3
                      -629.4171655471     -149.9511529      .62941716638E-6       30.0488471       .741808018E-12
     Total network loss  P-loss  by summing injections =   2.760173582117E+05

Output for steady-state phasor switch currents.
      Node-K    Node-M            I-real            I-imag            I-magn          Degrees        Power            Reactive
      LN1A      COMPA         2.73846322E+00    8.76778131E-02    2.73986646E+00       1.8338    3.01011083E+01    1.50505200E+03
      LN1B      COMPB        -1.29330062E+00   -2.41541743E+00    2.73986639E+00    -118.1662    3.01009497E+01    1.50505197E+03
      LN1C      COMPC        -1.44516288E+00    2.32773971E+00    2.73986640E+00     121.8338    3.01011624E+01    1.50505197E+03
      VFF2A     RSNNHA       -1.07162692E-09    1.25697822E-06    1.25697868E-06      90.0488    7.89997695E-04    1.35896937E-13
      VFF2B     RSNNHB        1.08911088E-06   -6.27561052E-07    1.25697868E-06     -29.9512    7.89997695E-04   -4.13734965E-13
      VFF2C     RSNNHC       -1.08803925E-06   -6.29417167E-07    1.25697867E-06    -149.9512    7.89997695E-04   -1.15098924E-12
      VFF2A     SE2A              Open              Open              Open             Open          Open              Open
      VFF2B     SE2B              Open              Open              Open             Open          Open              Open
      VFF2C     SE2C              Open              Open              Open             Open          Open              Open
      X0001B    XX0003            Open              Open              Open             Open          Open              Open
      X0001C    XX0004            Open              Open              Open             Open          Open              Open
      XX0005    X0002A            Open              Open              Open             Open          Open              Open
      XX0003    X0002B            Open              Open              Open             Open          Open              Open
      XX0004    X0002C            Open              Open              Open             Open          Open              Open
      X0001A    XX0005            Open              Open              Open             Open          Open              Open
      VFUENA    IFUENA        4.29286796E-01    1.20100015E-01    4.45770307E-01      15.6298    9.20091903E+04   -2.57410786E+04
      VFUENB    IFUENB       -1.10633734E-01   -4.31823278E-01    4.45770307E-01    -104.3702    9.20091903E+04   -2.57410786E+04
      VFUENC    IFUENC       -3.18653062E-01    3.11723263E-01    4.45770307E-01     135.6298    9.20091903E+04   -2.57410786E+04
      COMPA     RSNSHA        2.73846322E+00    8.76778131E-02    2.73986646E+00       1.8338    3.01011083E+01    1.50505200E+03
      COMPB     RSNSHB       -1.29330062E+00   -2.41541743E+00    2.73986639E+00    -118.1662    3.01009497E+01    1.50505197E+03
      COMPC     RSNSHC       -1.44516288E+00    2.32773971E+00    2.73986640E+00     121.8338    3.01011624E+01    1.50505197E+03

Solution at nodes with known voltage.   Nodes that are shorted together by switches are shown as a group of names, with the printed
result applying to the composite group.   The entry "MVA" is  SQRT( P**2 + Q**2 )  in units of power,  while  "P.F."  is the
associated power factor.
              Node                Source  node  voltage             Injected  source  current              Injected  source  power
              name         Rectangular            Polar          Rectangular            Polar            P  and  Q    MVA and P.F.

               VFUENA
              IFUENA       428660.705       428660.705      .42928679594774  .44577030729382      92009.190299074  95542.107096318
                                  0.0              0.0      .12010001536117       15.6298337      -25741.07862761        0.9630224

               VFUENB
              IFUENB     -214330.3525       428660.705      -.1106337336754   .4457703072972      92009.190299675  95542.107097043
                      -371231.0601341     -120.0000000      -.4318232784842     -104.3701663      -25741.07862816        0.9630224

               VFUENC
              IFUENC     -214330.3525       428660.705      -.3186530622773  .44577030729701      92009.190299448  95542.107097001
                      371231.06013415      120.0000000       .3117232631181      135.6298337      -25741.07862881        0.9630224

  +++  Node  "COMPC "  has no connected linear branches.  Add (to ground) the conductance  G = 1.00000000E-18  mhos.
  +++  Node  "COMPB "  has no connected linear branches.  Add (to ground) the conductance  G = 1.00000000E-18  mhos.
  +++  Node  "COMPA "  has no connected linear branches.  Add (to ground) the conductance  G = 1.00000000E-18  mhos.
Card of names for time-step loop output.          |  LN1A  LN1B  LN1C  COMPA COMPB COMPC SB1A  SB1B  SB1C  SE2A  SE2B  SE2C  VFF2A
Card of names for time-step loop output.          |  VFF2B VFF2C IFUENAIFUENBIFUENC
Card of names for time-step loop output.          |-5VFF2A VFF2B VFF2B VFF2C VFF2C VFF2A LN1A  LN1B  LN1B  LN1C  LN1C  LN1A
Card of names for time-step loop output.          |-5SB1A  SB1B  SB1B  SB1C  SB1C  SB1A
Blank card ending requests for output variables.  |BLANK OUTPUT

Column headings for the  55   EMTP output variables follow.  These are divided among the 5 possible classes as follows ....
  First  27     output variables are electric-network voltage differences (upper voltage minus lower voltage);
  Next   6     output variables are branch currents (flowing from the upper node to the lower node);
  Next   22     output variables belong to MODELS (with "MODELS" an internally-added upper name of pair).
   Step      Time      LN1A       LN1B       LN1C       COMPA      COMPB      COMPC      SB1A       SB1B       SB1C       SE2A
 

                       SE2B       SE2C       VFF2A      VFF2B      VFF2C      IFUENA     IFUENB     IFUENC     VFF2A      VFF2B
                                                                                                               VFF2B      VFF2C

                       VFF2C      LN1A       LN1B       LN1C       SB1A       SB1B       SB1C       VFUENA     VFUENB     VFUENC
                       VFF2A      LN1B       LN1C       LN1A       SB1B       SB1C       SB1A       IFUENA     IFUENB     IFUENC

                       COMPA      COMPB      COMPC      MODELS     MODELS     MODELS     MODELS     MODELS     MODELS     MODELS
                       RSNSHA     RSNSHB     RSNSHC     ANVOL      LONG       R0F        R1F        X0F        X1F        RDIVX

                       MODELS     MODELS     MODELS     MODELS     MODELS     MODELS     MODELS     MODELS     MODELS     MODELS
                       RINSER     CLOSE1     RPPOS      RPCERO     LPPOS      LPCERO     CPPOS      CPCERO     XP         CR

                       MODELS     MODELS     MODELS     MODELS     MODELS
                       SIMET      ENC1       ENC2       ENC1AS     ENC2AS
 ***      Phasor I(0) =  2.7384632E+00                     Switch  "LN1A  "  to  "COMPA "  closed in the steady-state.
 ***      Phasor I(0) = -1.2933006E+00                     Switch  "LN1B  "  to  "COMPB "  closed in the steady-state.
 ***      Phasor I(0) = -1.4451629E+00                     Switch  "LN1C  "  to  "COMPC "  closed in the steady-state.
 ***      Phasor I(0) = -1.0716269E-09                     Switch  "VFF2A "  to  "RSNNHA"  closed in the steady-state.
 ***      Phasor I(0) =  1.0891109E-06                     Switch  "VFF2B "  to  "RSNNHB"  closed in the steady-state.
 ***      Phasor I(0) = -1.0880393E-06                     Switch  "VFF2C "  to  "RSNNHC"  closed in the steady-state.
 ***      Phasor I(0) =  4.2928680E-01                     Switch  "VFUENA"  to  "IFUENA"  closed in the steady-state.
 ***      Phasor I(0) = -1.1063373E-01                     Switch  "VFUENB"  to  "IFUENB"  closed in the steady-state.
 ***      Phasor I(0) = -3.1865306E-01                     Switch  "VFUENC"  to  "IFUENC"  closed in the steady-state.
 ***      Phasor I(0) =  2.7384632E+00                     Switch  "COMPA "  to  "RSNSHA"  closed in the steady-state.
 ***      Phasor I(0) = -1.2933006E+00                     Switch  "COMPB "  to  "RSNSHB"  closed in the steady-state.
 ***      Phasor I(0) = -1.4451629E+00                     Switch  "COMPC "  to  "RSNSHC"  closed in the steady-state.
      0       0.0   -13.19562 958.162381 -944.96676  -13.19562 958.162381 -944.96676  428660.66 -214334.35 -214326.31        0.0
                          0.0        0.0 -1.0716271 1089.11088 -1088.0393 428660.705 -214330.35 -214330.35 -1090.1825 2177.15014
                   -1086.9676   -971.358 1903.12914 -931.77114 642995.005 -8.0309962 -642986.97 .429286796 -.11063373 -.31865306
                   2.73846322 -1.2933006 -1.4451629        0.0   383.1135    3.67542   2.899907   12.66114   9.989638    .290292
                         400.    .055726    .027707    .220911    .349856   1.232395    .015939    .008473   801.9593   16.03919
                          1.0        1.0        0.0        0.0        0.0
    500     .5E-3   -184.9191 1030.52109 -845.60199  -184.9191 1030.52109 -845.60199 423383.869 -153622.57 -269761.29        0.0
                          0.0        0.0 -197.69315 1173.87429 -976.18114  423383.18 -153618.26 -269764.92 -1371.5674 2150.05544
                     -778.488 -1215.4402 1876.12308 -660.68289 577006.443  116138.72 -693145.16  .40522245 -.04172266 -.36349979
                   2.69103237 -.89952338 -1.7915091        0.0   383.1135    3.67542   2.899907   12.66114   9.989638    .290292
                         400.    .055726    .027707    .220911    .349856   1.232395    .015939    .008473   801.9593   16.03919
                          1.0        1.0        0.0        0.0        0.0
   1000     .1E-2  -352.08902 1077.50483 -725.41581 -352.08902 1077.50483 -725.41581 407681.948 -89128.099 -318553.85        0.0
                          0.0        0.0 -389.44681 1229.73303 -840.28622 407680.557 -89123.572 -318556.98 -1619.1798 2070.01924
                   -450.83941 -1429.5939 1802.92064 -373.32679 496810.046 229425.751  -726235.8 .371172133 .028219781 -.39939191
                   2.57733939 -.48359684 -2.0937426        0.0   383.1135    3.67542   2.899907   12.66114   9.989638    .290292
                         400.    .055726    .027707    .220911    .349856   1.232395    .015939    .008473   801.9593   16.03919
                          1.0        1.0        0.0        0.0        0.0
   1500     .0015  -510.58949  1097.9569 -587.36741 -510.58949  1097.9569 -587.36741  381941.55 -22438.996 -359502.55        0.0
                          0.0        0.0 -571.61099 1255.31165 -683.70066 381939.485 -22434.368 -359505.12 -1826.9226 1939.01231
                   -112.08966 -1608.5464 1685.32431 -76.777927 404380.546 337063.558  -741444.1 .327981488 .097467779 -.42544927
                   2.40018377 -.05576246 -2.3444212        0.0   383.1135    3.67542   2.899907   12.66114   9.989638    .290292
                         400.    .055726    .027707    .220911    .349856   1.232395    .015939    .008473   801.9593   16.03919
                          1.0        1.0        0.0        0.0        0.0
   2000      .002  -656.51753 1091.37361 -434.85608 -656.51753 1091.37361 -434.85608 346796.484 44802.6286 -391599.11        0.0
                          0.0        0.0 -739.69952    1249.98 -510.28047 346793.795 44807.2448 -391601.04 -1989.6795 1760.26047
                    229.41905 -1747.8911 1526.22969 221.661449 301993.856 436401.741  -738395.6 .276714883 .164315781 -.44103066
                   2.16392758 .373444766 -2.5373723        0.0   383.1135    3.67542   2.899907   12.66114   9.989638    .290292
                         400.    .055726    .027707    .220911    .349856   1.232395    .015939    .008473   801.9593   16.03919
                          1.0        1.0        0.0        0.0        0.0
   2500     .0025  -786.27993 1057.91709 -271.63716 -786.27993 1057.91709 -271.63716 303112.138 110941.064  -414053.2        0.0
                          0.0        0.0 -889.57557 1213.87037  -324.2948 303108.891 110945.554 -414054.45 -2103.4459 1538.16517
                   565.280766  -1844.197 1329.55425 514.642776 192171.074 524994.266 -717165.34 .218634721 .227117742 -.44575246
                   1.87438841 .793456561  -2.667845        0.0   383.1135    3.67542   2.899907   12.66114   9.989638    .290292
                         400.    .055726    .027707    .220911    .349856   1.232395    .015939    .008473   801.9593   16.03919
                          1.0        1.0        0.0        0.0        0.0
   3000      .003  -896.68151 998.411137 -101.72963 -896.68151 998.411137 -101.72963 251964.165 174347.762 -426311.93        0.0
                          0.0        0.0 -1017.5466 1147.87089 -130.32424 251960.441 174352.016 -426312.46 -2165.4175 1278.19513
                   887.222399 -1895.0926 1100.14076 794.951887 77616.4035 600659.689 -678276.09 .155171027 .284327321 -.43949835
                   1.53869556 1.19393082 -2.7326264        0.0   383.1135    3.67542   2.899907   12.66114   9.989638    .290292
                         400.    .055726    .027707    .220911    .349856   1.232395    .015939    .008473   801.9593   16.03919
                          1.0        1.0        0.0        0.0        0.0
   3500     .0035  -985.00438 914.321278 70.6831011 -985.00438 914.321278 70.6831011 194612.003 233461.437 -428073.44        0.0
                          0.0        0.0 -1120.4623   1053.607 66.8553215 194607.888 233465.353 -428073.24 -2174.0693 986.751674
                   1187.31764 -1899.3257 843.638177 1055.68748 -38849.434 661534.877 -622685.44  .08788969 .334534228 -.42242392
                   1.16511484 1.56500662 -2.7301215        0.0   383.1135    3.67542   2.899907   12.66114   9.989638    .290292
                         400.    .055726    .027707    .220911    .349856   1.232395    .015939    .008473   801.9593   16.03919
                          1.0        1.0        0.0        0.0        0.0
   4000      .004   -1049.072 807.717208 241.354805  -1049.072 807.717208 241.354805 132467.833 286826.524 -419294.36        0.0
                          0.0        0.0 -1195.7885 933.399804 262.388673 132463.443 286829.997 -419293.44 -2129.1883 671.011131
                   1458.17715 -1856.7892 566.362403 1290.42682 -154358.69 706120.881 -551762.19 .018438942 .376506424 -.39494537
                   .762845291 1.89754681  -2.660392        0.0   383.1135    3.67542   2.899907   12.66114   9.989638    .290292
                         400.    .055726    .027707    .220911    .349856   1.232395    .015939    .008473   801.9593   16.03919
                          1.0        1.0        0.0        0.0        0.0
   4500     .0045  -1087.3087 681.224794 406.083887 -1087.3087 681.224794 406.083887 67061.8786 333128.984 -400190.86        0.0
                          0.0        0.0 -1241.6704 790.209219 451.461153 67057.3081 333131.936 -400189.24 -2031.8796 338.748066
                   1693.13152 -1768.5335 275.140907 1493.39257 -266067.11 733319.846 -467252.74 -.05146475 .409207247 -.35774249
                   .341791885 2.18336299 -2.5251548        0.0   383.1135    3.67542   2.899907   12.66114   9.989638    .290292
                         400.    .055726    .027707    .220911    .349856   1.232395    .015939    .008473   801.9593   16.03919
                          1.0        1.0        0.0        0.0        0.0
   5000      .005  -1098.7721 537.958322 560.813804 -1098.7721 537.958322 560.813804 4.63632168 371228.703 -371233.34        0.0
                          0.0        0.0 -1256.9778 627.560862 629.416944 -.45661E-7  371231.06 -371231.06 -1884.5387  -1.856082
                   1886.39475 -1636.7304 -22.855482 1659.58593 -371224.07 742462.042 -371237.98 -.12010013 .431831487 -.31173135
                   -.08767771 2.41541758 -2.3277399        0.0   383.1135    3.67542   2.899907   12.66114   9.989638    .290292
                         400.    .055726    .027707    .220911    .349856   1.232395    .015939    .008473   801.9593   16.03919
                          1.0        1.0        0.0        0.0        0.0
   5500     .0055  -1083.1802 381.445549 701.734629 -1083.1802 381.445549 701.734629 -67052.721  400187.54 -333134.82        0.0
                          0.0        0.0 -1241.3355 449.460464 791.875014 -67057.308 400189.244 -333131.94 -1690.7959 -342.41455
                   2033.21049 -1464.6257 -320.28908 1784.91481 -467240.26 733322.359  -266082.1 -.18577813 .443822543 -.25804441
                   -.51498828 2.58799649 -2.0730083        0.0   383.1135    3.67542   2.899907   12.66114   9.989638    .290292
                         400.    .055726    .027707    .220911    .349856   1.232395    .015939    .008473   801.9593   16.03919
                          1.0        1.0        0.0        0.0        0.0
   6000      .006  -1040.9167 215.540312  825.37641 -1040.9167 215.540312  825.37641 -132459.02 419292.432 -286833.41        0.0
                          0.0        0.0 -1195.1262 260.292304 934.833936 -132463.44  419293.44   -286830. -1455.4185 -674.54163
                   2129.96018  -1256.457  -609.8361 1866.29313 -551751.45 706125.845 -154374.39 -.24688172  .44488525 -.19800353
                   -.92961817 2.69685042 -1.7672324        0.0   383.1135    3.67542   2.899907   12.66114   9.989638    .290292
                         400.    .055726    .027707    .220911    .349856   1.232395    .015939    .008473   801.9593   16.03919
                          1.0        1.0        0.0        0.0        0.0
   6500     .0065  -973.02224 44.3276587 928.694577 -973.02224 44.3276587 928.694577 -194603.73 428072.949 -233469.22        0.0
                          0.0        0.0 -1119.4893  64.714997 1054.77427 -194607.89  428073.24 -233465.35 -1184.2043 -990.05927
                   2174.26354 -1017.3499 -884.36692 1901.71681 -622676.68 661542.169 -38865.491 -.30190627 .434993409 -.13308714
                   -1.3213576 2.73929894 -1.4179413        0.0   383.1135    3.67542   2.899907   12.66114   9.989638    .290292
                         400.    .055726    .027707    .220911    .349856   1.232395    .015939    .008473   801.9593   16.03919
                          1.0        1.0        0.0        0.0        0.0
   7000      .007   -881.1688 -127.97645 1009.14525  -881.1688 -127.97645 1009.14525 -251956.66 426312.896 -174356.23        0.0
                          0.0        0.0 -1016.2868 -132.45576  1148.7426 -251960.44 426312.457 -174352.02 -883.83109 -1281.1984
                   2165.02944 -753.19235 -1137.1217 1890.31405 -678269.56  600669.13 77600.4287 -.34949694 .414390608 -.06489367
                    -1.680561 2.71429682 -1.0337358        0.0   383.1135    3.67542   2.899907   12.66114   9.989638    .290292
                         400.    .055726    .027707    .220911    .349856   1.232395    .015939    .008473   801.9593   16.03919
                          1.0        1.0        0.0        0.0        0.0
   7500     .0075  -767.61845 -297.12916 1064.74761 -767.61845 -297.12916 1064.74761 -303105.58 414055.601 -110950.02        0.0
                          0.0        0.0 -888.06007   -326.365 1214.42508 -303108.89 414054.446 -110945.55 -561.69507 -1540.7901
                   2102.48515 -470.48929 -1361.8768 1832.36607 -717161.18 525005.624 192155.557 -.38848236 .383584403 .004897955
                   -1.9983834 2.62245969 -.62407628        0.0   383.1135    3.67542   2.899907   12.66114   9.989638    .290292
                         400.    .055726    .027707    .220911    .349856   1.232395    .015939    .008473   801.9593   16.03919
                          1.0        1.0        0.0        0.0        0.0
   8000      .008  -635.16658 -458.96567 1094.13225 -635.16658 -458.96567 1094.13225 -346791.03 391602.884 -44811.852        0.0
                          0.0        0.0 -737.96631 -512.23807 1250.20437  -346793.8  391601.04 -44807.245 -225.72824 -1762.4424
                   1988.17068 -176.20091 -1553.0979 1729.29883 -738393.92 436414.736 301979.179 -.41790097 .343332535 .074568436
                    -2.266999  2.4660489 -.19904995        0.0   383.1135    3.67542   2.899907   12.66114   9.989638    .290292
                         400.    .055726    .027707    .220911    .349856   1.232395    .015939    .008473   801.9593   16.03919
                          1.0        1.0        0.0        0.0        0.0
   8500     .0085  -487.07473 -609.50096 1096.57569 -487.07473 -609.50096 1096.57569 -381937.34 359507.604 22429.7349        0.0
                          0.0        0.0 -569.70151 -685.49805 1255.19956 -381939.48 359505.117 22434.3679 115.796543 -1940.6976
                   1824.90107 122.426228 -1706.0767 1583.65043 -741444.94 337077.869 404367.074 -.43702991   .2946269 .142403014
                   -2.4797934 2.24891588 .230877695        0.0   383.1135    3.67542   2.899907   12.66114   9.989638    .290292
                         400.    .055726    .027707    .220911    .349856   1.232395    .015939    .008473   801.9593   16.03919
                          1.0        1.0        0.0        0.0        0.0
   9000      .009  -326.98949 -745.02831 1072.01779 -326.98949 -745.02831 1072.01779 -407679.08 318560.054 89119.0271        0.0
                          0.0        0.0 -387.40847 -841.87895 1229.28742 -407680.56 318556.985  89123.572 454.470484 -2071.1664
                   1616.69589 418.038824 -1817.0461 1399.00728 -726239.13 229441.027 496798.108 -.44539785 .238666635  .20673122
                   -2.6315272 1.97640697  .65512026        0.0   383.1135    3.67542   2.899907   12.66114   9.989638    .290292
                         400.    .055726    .027707    .220911    .349856   1.232395    .015939    .008473   801.9593   16.03919
                          1.0        1.0        0.0        0.0        0.0
   9500     .0095  -158.85268 -862.21059 1021.06326 -158.85268 -862.21059 1021.06326 -423382.41 269768.498 153613.913        0.0
                          0.0        0.0 -195.57625 -977.52995 1173.10621 -423383.18 269764.922 153618.258 781.953698 -2150.6362
                   1368.68246  703.35791 -1883.2738 1179.91594 -693150.91 116154.585 576996.323 -.44279864 .176829612 .265969023
                    -2.718464 1.65523245 1.06323159        0.0   383.1135    3.67542   2.899907   12.66114   9.989638    .290292
                         400.    .055726    .027707    .220911    .349856   1.232395    .015939    .008473   801.9593   16.03919
                          1.0        1.0        0.0        0.0        0.0
  10000       .01  13.1953435 -958.16224 944.966894 13.1953435 -958.16224 944.966894 -428660.66 214334.345 214326.314        0.0
                          0.0        0.0 1.07158894 -1089.1109 1088.03928 -428660.71 214330.353 214330.352 1090.18245 -2177.1501
                   1086.96769 971.357581 -1903.1291  931.77155   -642995. 8.03116276 642986.973 -.42929633 .110638503 .318657832
                   -2.7384632 1.29330052 1.44516264        0.0   383.1135    3.67542   2.899907   12.66114   9.989638    .290292
                         400.    .055726    .027707    .220911    .349856   1.232395    .015939    .008473   801.9593   16.03919
                          1.0        1.0        0.0        0.0        0.0
  10500     .0105  184.918956  -1030.521 845.602061 184.918956  -1030.521 845.602061 -423383.86 153622.572 269761.292        0.0
                          0.0        0.0 197.693125 -1173.8743 976.181165 -423383.18 153618.258 269764.922 1371.56742 -2150.0555
                   778.488039 1215.43997 -1876.1231 660.683105 -577006.44 -116138.72 693145.156 -.40522343 .041723152 .363500276
                   -2.6910324 .899523318 1.79150909        0.0   383.1135    3.67542   2.899907   12.66114   9.989638    .290292
                         400.    .055726    .027707    .220911    .349856   1.232395    .015939    .008473   801.9593   16.03919
                          1.0        1.0        0.0        0.0        0.0
  11000      .011  352.088967 -1077.5048 725.415839 352.088967 -1077.5048 725.415839 -407681.95 89128.0981 318553.849        0.0
                          0.0        0.0 389.446791  -1229.733 840.286238 -407680.56  89123.572 318556.985 1619.17982 -2070.0193
                   450.839448 1429.59377 -1802.9206 373.326872 -496810.04 -229425.75 726235.795 -.37117199 -.02821985 .399391844
                   -2.5773394 .483596924 2.09374252        0.0   383.1135    3.67542   2.899907   12.66114   9.989638    .290292
                         400.    .055726    .027707    .220911    .349856   1.232395    .015939    .008473   801.9593   16.03919
                          1.0        1.0        0.0        0.0        0.0
  11500     .0115  510.589514 -1097.9569 587.367409 510.589514 -1097.9569 587.367409 -381941.55 22438.9963 359502.554        0.0
                          0.0        0.0 571.611567 -1255.3119 683.700379 -381939.48 22434.3679 359505.117 1826.92351 -1939.0123
                   112.088812 1608.54644 -1685.3243 76.7778948 -404380.55 -337063.56 741444.104 -.32798136 -.09746784 .425449204
                   -2.4001838 .055762532 2.34442123        0.0   383.1135    3.67542   2.899907   12.66114   9.989638    .290292
                         400.    .055726    .027707    .220911    .349856   1.232395    .015939    .008473   801.9593   16.03919
                          1.0        1.0        0.0        0.0        0.0
  12000      .012  656.517525 -1091.3736 434.856099 656.517525 -1091.3736 434.856099 -346796.48 -44802.629 391599.113        0.0
                          0.0        0.0 739.700209 -1249.9803 510.280136  -346793.8 -44807.245  391601.04 1989.68055 -1760.2605
                   -229.42007 1747.89115 -1526.2297 -221.66143 -301993.86 -436401.74 738395.597 -.27671494 -.16431575 .441030695
                   -2.1639277 -.37344476 2.53737237        0.0   383.1135    3.67542   2.899907   12.66114   9.989638    .290292
                         400.    .055726    .027707    .220911    .349856   1.232395    .015939    .008473   801.9593   16.03919
                          1.0        1.0        0.0        0.0        0.0
  12500     .0125  786.279931 -1057.9171 271.637173 786.279931 -1057.9171 271.637173 -303112.14 -110941.06 414053.202        0.0
                          0.0        0.0 889.575641 -1213.8704 324.294771 -303108.89 -110945.55 414054.446 2103.44605 -1538.1652
                   -565.28087 1844.19704 -1329.5543 -514.64276 -192171.07 -524994.27  717165.34 -.21863475 -.22711773 .445752477
                   -1.8743884 -.79345654 2.66784501        0.0   383.1135    3.67542   2.899907   12.66114   9.989638    .290292
                         400.    .055726    .027707    .220911    .349856   1.232395    .015939    .008473   801.9593   16.03919
                          1.0        1.0        0.0        0.0        0.0
  13000      .013  896.681735 -998.41126 101.729522 896.681735 -998.41126 101.729522 -251964.17 -174347.76 426311.928        0.0
                          0.0        0.0 1017.54664 -1147.8709  130.32426 -251960.44 -174352.02 426312.457 2165.41754 -1278.1952
                   -887.22238 1895.09299 -1100.1408 -794.95221 -77616.406 -600659.69 678276.095 -.15517212 -.28432678 .439498894
                   -1.5386956 -1.1939308 2.73262644        0.0   383.1135    3.67542   2.899907   12.66114   9.989638    .290292
                         400.    .055726    .027707    .220911    .349856   1.232395    .015939    .008473   801.9593   16.03919
                          1.0        1.0        0.0        0.0        0.0
  13500     .0135  985.003851 -914.32102 -70.682832 985.003851 -914.32102 -70.682832   -194612. -233461.44 428073.439        0.0
                          0.0        0.0  1120.4623  -1053.607 -66.855294 -194607.89 -233465.35  428073.24 2174.06931 -986.75171
                   -1187.3176 1899.32487 -843.63819 -1055.6867 38849.4367 -661534.88 622685.441 -.08788603 -.33453606 .422422085
                   -1.1651149 -1.5650066 2.73012154        0.0   383.1135    3.67542   2.899907   12.66114   9.989638    .290292
                         400.    .055726    .027707    .220911    .349856   1.232395    .015939    .008473   801.9593   16.03919
                          1.0        1.0        0.0        0.0        0.0
  14000      .014  1049.07204 -807.71723 -241.35481 1049.07204 -807.71723 -241.35481 -132467.84 -286826.52 419294.359        0.0
                          0.0        0.0 1195.78848 -933.39982 -262.38866 -132463.44   -286830.  419293.44  2129.1883 -671.01117
                   -1458.1771 1856.78927 -566.36242 -1290.4268 154358.684 -706120.88 551762.197 -.01843786 -.37650696 .394944829
                   -.76284534 -1.8975468 2.66039201        0.0   383.1135    3.67542   2.899907   12.66114   9.989638    .290292
                         400.    .055726    .027707    .220911    .349856   1.232395    .015939    .008473   801.9593   16.03919
                          1.0        1.0        0.0        0.0        0.0
  14500     .0145  1087.30868  -681.2248 -406.08388 1087.30868  -681.2248 -406.08388  -67061.88 -333128.98 400190.863        0.0
                          0.0        0.0 1241.67038 -790.20924 -451.46114 -67057.308 -333131.94 400189.244 2031.87962  -338.7481
                   -1693.1315 1768.53348 -275.14093 -1493.3926 266067.102 -733319.85 467252.744 .051464788 -.40920726 .357742476
                   -.34179193  -2.183363 2.52515479        0.0   383.1135    3.67542   2.899907   12.66114   9.989638    .290292
                         400.    .055726    .027707    .220911    .349856   1.232395    .015939    .008473   801.9593   16.03919
                          1.0        1.0        0.0        0.0        0.0
  % % % % % %   Suspended simulation;  plot data space exhausted;  SPY SPACE is required.   LIMBUF =  840000.
  % % % % % %   Suspended simulation;  plot data space exhausted;  SPY SPACE is required.   LIMBUF =  840000.
  +++  Time-sharing disabled.   Send  user-keyed interrupt to silence alarm.
   Current values.  INDBUF  INDBEG  LIMBUF  MFLUSH  NUMDCD  KCARD1  KCARD2
                    839994      50  840000    1000     230       1     231
Plot timespan now in memory (in sec) = 0.00000000E+00   1.49990000E-02
   ++++  Begin plot-data copy from memory to disk.   MFLUSH, INDBUF, N4, Tbeg,  Tend = 1001  839994       1  -1.00000E+00
1.00000E+19
  15000      .015  1098.77214 -537.95835 -560.81379 1098.77214 -537.95835 -560.81379 -4.6367688  -371228.7 371233.339        0.0
                          0.0        0.0 1256.97824 -627.56108 -629.41716 -.61533E-6 -371231.06  371231.06 1884.53932 1.85607359
                   -1886.3954 1636.73049 22.8554445 -1659.5859 371224.066 -742462.04 371237.976 .120099957  -.4318314 .311731442
                   .087677574 -2.4154175 2.32773994        0.0   383.1135    3.67542   2.899907   12.66114   9.989638    .290292
                         400.    .055726    .027707    .220911    .349856   1.232395    .015939    .008473   801.9593   16.03919
                          1.0        1.0        0.0        0.0        0.0
  15500     .0155  1083.18017 -381.44556 -701.73461 1083.18017 -381.44556 -701.73461 67052.7213 -400187.54 333134.819        0.0
                          0.0        0.0 1241.33506 -449.46026 -791.87479 67057.3081 -400189.24 333131.936 1690.79532 342.414533
                   -2033.2098 1464.62573 320.289049 -1784.9148 467240.261 -733322.36 266082.097  .18577812 -.44382254 .258044418
                   .514988263 -2.5879965 2.07300835        0.0   383.1135    3.67542   2.899907   12.66114   9.989638    .290292
                         400.    .055726    .027707    .220911    .349856   1.232395    .015939    .008473   801.9593   16.03919
                          1.0        1.0        0.0        0.0        0.0
  16000      .016  1040.91673 -215.54033  -825.3764 1040.91673 -215.54033  -825.3764 132459.019 -419292.43 286833.413        0.0
                          0.0        0.0 1195.12617 -260.29228 -934.83389 132463.443 -419293.44 286829.997 1455.41845 674.541612
                   -2129.9601 1256.45706 609.836072 -1866.2931 551751.451 -706125.84 154374.394 .246881732 -.44488525 .198003522
                   .929618145 -2.6968504  1.7672324        0.0   383.1135    3.67542   2.899907   12.66114   9.989638    .290292
                         400.    .055726    .027707    .220911    .349856   1.232395    .015939    .008473   801.9593   16.03919
                          1.0        1.0        0.0        0.0        0.0
  16500     .0165  973.022272 -44.327679 -928.69459 973.022272 -44.327679 -928.69459 194603.738 -428072.95 233469.216        0.0
                          0.0        0.0 1119.48927 -64.715016 -1054.7743 194607.888 -428073.24 233465.353 1184.20428 990.059237
                   -2174.2635 1017.34995 884.366914 -1901.7169 622676.692 -661542.17 38865.4776 .301906906 -.43499372 .133086818
                   1.32135763 -2.7392989 1.41794131        0.0   383.1135    3.67542   2.899907   12.66114   9.989638    .290292
                         400.    .055726    .027707    .220911    .349856   1.232395    .015939    .008473   801.9593   16.03919
                          1.0        1.0        0.0        0.0        0.0
  17000      .017  881.169262 127.976216 -1009.1455 881.169262 127.976216 -1009.1455 251956.664  -426312.9 174356.233        0.0
                          0.0        0.0 1016.28689  132.45572 -1148.7426 251960.441 -426312.46 174352.016 883.831167 1281.19833
                   -2165.0295 753.193046 1137.12169 -1890.3147  678269.56 -600669.13  -77600.43 .349496719  -.4143905  .06489378
                   1.68056103 -2.7142968  1.0337358        0.0   383.1135    3.67542   2.899907   12.66114   9.989638    .290292
                         400.    .055726    .027707    .220911    .349856   1.232395    .015939    .008473   801.9593   16.03919
                          1.0        1.0        0.0        0.0        0.0
  17500     .0175  767.618524 297.129121 -1064.7476 767.618524 297.129121 -1064.7476 303105.581  -414055.6 110950.021        0.0
                          0.0        0.0 888.060091 326.364986 -1214.4251 303108.891 -414054.45 110945.554 561.695106 1540.79006
                   -2102.4852 470.489403 1361.87677 -1832.3662 717161.184 -525005.62 -192155.56 .388481782 -.38358411 -.00489767
                   1.99838343 -2.6224597 .624076348        0.0   383.1135    3.67542   2.899907   12.66114   9.989638    .290292
                         400.    .055726    .027707    .220911    .349856   1.232395    .015939    .008473   801.9593   16.03919
                          1.0        1.0        0.0        0.0        0.0
  18000      .018  635.166617 458.965646 -1094.1323 635.166617 458.965646 -1094.1323 346791.033 -391602.88 44811.8516        0.0
                          0.0        0.0  737.96648 512.237981 -1250.2045 346793.795 -391601.04 44807.2448 225.728499 1762.44244
                   -1988.1709 176.200971 1553.09791 -1729.2989 738393.917 -436414.74 -301979.18 .417900886 -.34333249 -.07456839
                   2.26699888 -2.4660489 .199049953        0.0   383.1135    3.67542   2.899907   12.66114   9.989638    .290292
                         400.    .055726    .027707    .220911    .349856   1.232395    .015939    .008473   801.9593   16.03919
                          1.0        1.0        0.0        0.0        0.0
  18500     .0185  487.074726 609.500957 -1096.5757 487.074726 609.500957 -1096.5757  381937.34  -359507.6 -22429.735        0.0
                          0.0        0.0 569.701194 685.498211 -1255.1994 381939.485 -359505.12 -22434.368 -115.79702 1940.69762
                   -1824.9006 -122.42623 1706.07664 -1583.6504 741444.944 -337077.87 -404367.07 .437029983 -.29462693 -.14240305
                   2.47979341 -2.2489159 -.23087764        0.0   383.1135    3.67542   2.899907   12.66114   9.989638    .290292
                         400.    .055726    .027707    .220911    .349856   1.232395    .015939    .008473   801.9593   16.03919
                          1.0        1.0        0.0        0.0        0.0
  19000      .019  326.989505 745.028298 -1072.0178 326.989505 745.028298 -1072.0178 407679.081 -318560.05 -89119.027        0.0
                          0.0        0.0 387.408525 841.878929 -1229.2875 407680.557 -318556.98 -89123.572  -454.4704 2071.16638
                    -1616.696 -418.03879  1817.0461 -1399.0073 726239.135 -229441.03 -496798.11 .445397907 -.23866666 -.20673125
                    2.6315272  -1.976407 -.65512021        0.0   383.1135    3.67542   2.899907   12.66114   9.989638    .290292
                         400.    .055726    .027707    .220911    .349856   1.232395    .015939    .008473   801.9593   16.03919
                          1.0        1.0        0.0        0.0        0.0
  19500     .0195  158.852997 862.210433 -1021.0634 158.852997 862.210433 -1021.0634 423382.409  -269768.5 -153613.91        0.0
                          0.0        0.0 195.576345 977.529904 -1173.1062  423383.18 -269764.92 -153618.26 -781.95356 2150.63615
                   -1368.6826 -703.35744 1883.27386 -1179.9164 693150.905 -116154.58 -576996.32 .442798828 -.17682971 -.26596912
                   2.71846401 -1.6552324 -1.0632315        0.0   383.1135    3.67542   2.899907   12.66114   9.989638    .290292
                         400.    .055726    .027707    .220911    .349856   1.232395    .015939    .008473   801.9593   16.03919
                          1.0        1.0        0.0        0.0        0.0
  20000       .02  -13.195461 958.162308 -944.96685 -13.195461 958.162308 -944.96685 428660.659 -214334.35 -214326.31        0.0
                          0.0        0.0 -1.0715741 1089.11086 -1088.0393 428660.705 -214330.35 -214330.35 -1090.1824 2177.15014
                   -1086.9677 -971.35777 1903.12916 -931.77139 642995.005 -8.0311584 -642986.97 .429296117 -.11063839 -.31865772
                   2.73846324 -1.2933006 -1.4451627        0.0   383.1135    3.67542   2.899907   12.66114   9.989638    .290292
                         400.    .055726    .027707    .220911    .349856   1.232395    .015939    .008473   801.9593   16.03919
                          1.0        1.0        0.0        0.0        0.0
  20500     .0205  -184.91904 1030.52107 -845.60203 -184.91904 1030.52107 -845.60203 423383.861 -153622.57 -269761.29        0.0
                          0.0        0.0 -197.69313  1173.8743 -976.18117  423383.18 -153618.26 -269764.92 -1371.5674 2150.05547
                   -778.48804 -1215.4401 1876.12309 -660.68299 577006.432  116138.72 -693145.15 .405222975 -.04172293 -.36350005
                   2.69103241 -.89952327 -1.7915091        0.0   383.1135    3.67542   2.899907   12.66114   9.989638    .290292
                         400.    .055726    .027707    .220911    .349856   1.232395    .015939    .008473   801.9593   16.03919
                          1.0        1.0        0.0        0.0        0.0
  21000      .021  -352.08879 1077.50472 -725.41593 -352.08879 1077.50472 -725.41593 407681.946 -89128.098 -318553.85        0.0
                          0.0        0.0 -389.44499 1229.73214 -840.28715 407680.557 -89123.572 -318556.98 -1619.1771  2070.0193
                   -450.84216 -1429.5935 1802.92065 -373.32714 496810.044 229425.751 -726235.79 .371172011 .028219841 -.39939185
                    2.5773394 -.48359695 -2.0937425        0.0   383.1135    3.67542   2.899907   12.66114   9.989638    .290292
[...]
                         400.    .055726    .027707    .220911    .349856   1.232395    .015939    .008473   801.9593   16.03919
                          1.0        1.0        0.0        0.0        0.0
 113000      .113  -241194.67 -169720.32 410914.987 -241194.67 -169720.32 410914.987 -241194.67 -169720.32 410914.986        0.0
                          0.0        0.0 -310115.16 -223315.56 533430.721 -251960.44 -174352.02 426312.457 -86799.595 -756746.28
                   843545.879 -71474.352  -580635.3 652109.656 -71474.353  -580635.3 652109.655 -10.448437 467.010564 -456.56213
                   -932.42965 1193.33384 -260.90419        0.0   383.1135    3.67542   2.899907   12.66114   9.989638    .290292
                         400.    .055726    .027707    .220911    .349856   1.232395    .015939    .008473   801.9593   16.03919
                          1.0        1.0        0.0        0.0        0.0
 113500     .1135  -179042.47 -226126.92 405169.386 -179042.47 -226126.92 405169.386 -179042.47 -226126.92 405169.385        0.0
                          0.0        0.0 -171517.68 -241416.94 412934.624 -194607.89 -233465.35  428073.24 69899.2641 -654351.57
                   584452.304  47084.456 -631296.31 584211.851  47084.455 -631296.31  584211.85 -4.8196678 511.933534 -507.11387
                   -1017.1525 1107.99444 -90.841873        0.0   383.1135    3.67542   2.899907   12.66114   9.989638    .290292
                         400.    .055726    .027707    .220911    .349856   1.232395    .015939    .008473   801.9593   16.03919
                          1.0        1.0        0.0        0.0        0.0
 114000      .114   -138389.4 -303818.07 442207.476  -138389.4 -303818.07 442207.476  -138389.4 -303818.07 442207.475        0.0
                          0.0        0.0 -87203.237 -301966.74 389169.981 -132463.44   -286830.  419293.44 214763.507 -691136.73
                   476373.219 165428.672 -746025.55 580596.878 165428.671 -746025.55 580596.877 -91.511411 457.462133 -365.95072
                   -1075.7937 1003.38169 72.4119691        0.0   383.1135    3.67542   2.899907   12.66114   9.989638    .290292
                         400.    .055726    .027707    .220911    .349856   1.232395    .015939    .008473   801.9593   16.03919
                          1.0        1.0        0.0        0.0        0.0
 114500     .1145  -49686.145 -338178.16 387864.307 -49686.145 -338178.16 387864.307 -49686.145 -338178.16 387864.306        0.0
                          0.0        0.0 -5571.7308 -345574.86 351146.586 -67057.308 -333131.94 400189.244 340003.125 -696721.44
                   356718.317 288492.017 -726042.47 437550.452 288492.015 -726042.47 437550.451 -42.819388 484.854553 -442.03516
                   -1112.6825 877.501038 235.181453        0.0   383.1135    3.67542   2.899907   12.66114   9.989638    .290292
                         400.    .055726    .027707    .220911    .349856   1.232395    .015939    .008473   801.9593   16.03919
                          1.0        1.0        0.0        0.0        0.0
 115000      .115  10685.8279 -362660.34 351974.515 10685.8279 -362660.34 351974.515 10685.8273 -362660.34 351974.515        0.0
                          0.0        0.0 58290.4703 -383162.94 324872.474 .127058E-4 -371231.06  371231.06 441453.415 -708035.42
                   266582.004 373346.171 -714634.86 341288.687 373346.169 -714634.86 341288.687 -294.78076 339.599185  -44.81842
                   -1115.8704  739.86457 376.005849        0.0   383.1135    3.67542   2.899907   12.66114   9.989638    .290292
                         400.    .055726    .027707    .220911    .349856   1.232395    .015939    .008473   801.9593   16.03919
                          1.0        1.0        0.0        0.0        0.0
 115500     .1155  62566.4096 -406041.93 343475.524 62566.4096 -406041.93 343475.524 62566.4088 -406041.93 343475.524        0.0
                          0.0        0.0 91730.4647 -438700.56 346970.092 67057.3081 -400189.24 333131.936 530431.021 -785670.65
                   255239.627 468608.343 -749517.46 280909.114 468608.342 -749517.46 280909.116 -409.92531 214.294328 195.630987
                   -1095.9306 589.208036 506.722569        0.0   383.1135    3.67542   2.899907   12.66114   9.989638    .290292
                         400.    .055726    .027707    .220911    .349856   1.232395    .015939    .008473   801.9593   16.03919
                          1.0        1.0        0.0        0.0        0.0
 116000      .116  143066.453 -411251.03 268184.579 143066.453 -411251.03 268184.579 143066.452 -411251.03  268184.58        0.0
                          0.0        0.0  208005.04 -422193.31 214188.272 132463.443 -419293.44 286829.997 630198.353 -636381.59
                   6183.23196 554317.485 -679435.61 125118.126 554317.484 -679435.61 125118.128 -391.62559 132.053712 259.571878
                   -1053.3777 428.619092 624.758575        0.0   383.1135    3.67542   2.899907   12.66114   9.989638    .290292
                         400.    .055726    .027707    .220911    .349856   1.232395    .015939    .008473   801.9593   16.03919
                          1.0        1.0        0.0        0.0        0.0
 116500     .1165  197606.362 -424799.77  227193.41 197606.362 -424799.77  227193.41 197606.361 -424799.77 227193.411        0.0
                          0.0        0.0 234570.245 -466442.68 231872.437 194607.888 -428073.24 233465.353 701012.927 -698315.12
                   -2697.8073 622406.135 -651993.18 29587.0482 622406.134 -651993.18 29587.0494 -363.85519 129.834261 234.020933
                   -986.20165 261.139049 725.062626        0.0   383.1135    3.67542   2.899907   12.66114   9.989638    .290292
                         400.    .055726    .027707    .220911    .349856   1.232395    .015939    .008473   801.9593   16.03919
                          1.0        1.0        0.0        0.0        0.0
 117000      .117  235109.692 -433479.07 198369.375 235109.692 -433479.07 198369.375 235109.691 -433479.07 198369.376        0.0
                          0.0        0.0 230491.677  -506499.1 276007.427 251960.441 -426312.46 174352.016 736990.781 -782506.53
                   45515.7502 668588.758 -631848.44 -36740.316 668588.758 -631848.44 -36740.315  -342.5702 48.7795589 293.790641
                   -895.68312 94.8305817 800.852539        0.0   383.1135    3.67542   2.899907   12.66114   9.989638    .290292
                         400.    .055726    .027707    .220911    .349856   1.232395    .015939    .008473   801.9593   16.03919
                          1.0        1.0        0.0        0.0        0.0
 117500     .1175  312079.856 -398114.72 86034.8659 312079.856 -398114.72 86034.8659 312079.856 -398114.72 86034.8664        0.0
                          0.0        0.0 287289.351 -493841.34 206551.988 303108.891 -414054.45 110945.554 781130.691 -700393.33
                   -80737.363 710194.578 -484149.59 -226044.99 710194.578 -484149.59 -226044.99 -288.14607 34.3285394 253.817532
                   -785.13623 -69.853063 854.989274        0.0   383.1135    3.67542   2.899907   12.66114   9.989638    .290292
                         400.    .055726    .027707    .220911    .349856   1.232395    .015939    .008473   801.9593   16.03919
                          1.0        1.0        0.0        0.0        0.0
 118000      .118  334504.359  -405085.5 70581.1361 334504.359  -405085.5 70581.1361 334504.358  -405085.5 70581.1366        0.0
                          0.0        0.0 333187.125 -478233.58 145046.453 346793.795 -391601.04 44807.2447 811420.703 -623280.03
                   -188140.67 739589.854 -475666.63 -263923.22 739589.854 -475666.63 -263923.22 -268.26481 -27.796028 296.060842
                    -655.4444 -225.93926 881.383641        0.0   383.1135    3.67542   2.899907   12.66114   9.989638    .290292
                         400.    .055726    .027707    .220911    .349856   1.232395    .015939    .008473   801.9593   16.03919
                          1.0        1.0        0.0        0.0        0.0
 118500     .1185  375096.816 -369255.49 -5841.3284 375096.816 -369255.49 -5841.3284 375096.816 -369255.49 -5841.3286        0.0
                          0.0        0.0  368763.73 -455120.17 86356.4429 381939.485 -359505.12 -22434.368 823883.903 -541476.62
                   -282407.29 744352.304 -363414.16 -380938.14 744352.304 -363414.16 -380938.14 -10.749518 88.4738973  -77.72438
                   -516.81899  -375.3421  892.16111        0.0   383.1135    3.67542   2.899907   12.66114   9.989638    .290292
                         400.    .055726    .027707    .220911    .349856   1.232395    .015939    .008473   801.9593   16.03919
                          1.0        1.0        0.0        0.0        0.0
 119000      .119  396478.856 -330760.43  -65718.43 396478.856 -330760.43  -65718.43 396478.856 -330760.43  -65718.43        0.0
                          0.0        0.0 442636.876  -404111.5 -38525.375 407680.557 -318556.98 -89123.572 846748.378 -365586.13
                   -481162.25 727239.282   -265042. -462197.29 727239.282   -265042. -462197.29 127.942356 135.085301 -263.02766
                    -363.9855 -508.34266 872.328203        0.0   383.1135    3.67542   2.899907   12.66114   9.989638    .290292
                         400.    .055726    .027707    .220911    .349856   1.232395    .015939    .008473   801.9593   16.03919
                          1.0        1.0        0.0        0.0        0.0
 119500     .1195  411147.647 -272637.69 -138509.96 411147.647 -272637.69 -138509.96 411147.647 -272637.69 -138509.96        0.0
                          0.0        0.0 419887.458 -357386.32 -62501.138  423383.18 -269764.92 -153618.26 777273.777 -294885.18
                    -482388.6 683785.336 -134127.73 -549657.61 683785.336 -134127.73 -549657.61 172.601229 173.624897 -346.22613
                    -201.2425 -623.17162  824.41409        0.0   383.1135    3.67542   2.899907   12.66114   9.989638    .290292
                         400.    .055726    .027707    .220911    .349856   1.232395    .015939    .008473   801.9593   16.03919
                          1.0        1.0        0.0        0.0        0.0
  % % % % % %   Suspended simulation;  plot data space exhausted;  SPY SPACE is required.   LIMBUF =  840000.
  % % % % % %   Suspended simulation;  plot data space exhausted;  SPY SPACE is required.   LIMBUF =  840000.
  +++  Time-sharing disabled.   Send  user-keyed interrupt to silence alarm.
   Current values.  INDBUF  INDBEG  LIMBUF  MFLUSH  NUMDCD  KCARD1  KCARD2
                    839994      50  840000    1007     230       1     231
Plot timespan now in memory (in sec) = 1.04985997E-01   1.19985000E-01
   ++++  Begin plot-data copy from memory to disk.   MFLUSH, INDBUF, N4, Tbeg,  Tend = 1008  839994       1  -1.00000E+00
1.00000E+19
 120000       .12  415505.025 -225406.01 -190099.02 415505.025 -225406.01 -190099.02 415505.025   -225406. -190099.02        0.0
                          0.0        0.0 472665.111 -284228.48 -188436.63 428660.705 -214330.35 -214330.35 756893.594 -95791.853
                   -661101.74  640911.03 -35306.985 -605604.04  640911.03 -35306.984 -605604.05 163.768489 146.318021 -310.08651
                   -33.604477 -715.57352 749.177992        0.0   383.1135    3.67542   2.899907   12.66114   9.989638    .290292
                         400.    .055726    .027707    .220911    .349856   1.232395    .015939    .008473   801.9593   16.03919
                          1.0        1.0        0.0        0.0        0.0

Extrema of output variables follow.   Order and column positioning are the same as for the preceding time-step loop output.
Variable maxima :  469315.199 475068.767 481620.896 469315.199 475068.767 481620.896 469315.199 475068.768 481620.894        0.0
                          0.0        0.0 598939.385 604785.022 621290.797 428660.705 428660.703 428660.703 910401.368 .1108133E7
                   .1168685E7 783296.647 832921.016 814988.092 867172.334 832921.018 814988.092 689.405722 798.330786 562.673143
                   1002.26267 1386.85635 892.333958        0.0   383.1135    3.67542   2.899907   12.66114   9.989638    .290292
                         400.    .055726    .027707    .220911    .349856   1.232395    .015939    .008473   801.9593   16.03919
                          1.0        1.0        0.0        0.0        0.0
Times of maxima :     .080283    .066574    .073077    .080283    .066574    .073077    .080283    .066574    .073077        0.0
                          0.0        0.0    .079602    .067165    .071502        0.0    .006667    .113333    .078913    .065369
                      .071496    .078485    .066563    .070002    .059004    .066563    .070002    .058956    .072295    .076589
                      .104808    .071557    .118469        0.0        0.0        0.0        0.0        0.0        0.0        0.0
                          0.0        0.0        0.0        0.0        0.0        0.0        0.0        0.0        0.0        0.0
                          0.0        0.0        0.0        0.0        0.0
Variable minima :  -494522.39 -459679.49 -472790.43 -494522.39 -459679.49 -472790.43 -494522.39 -459679.49 -472790.43        0.0
                          0.0        0.0 -607808.62 -583222.74  -614000.1 -428660.71  -428660.7  -428660.7  -938732.4 -.104102E7
                   -.113432E7 -791158.79 -796043.41 -801005.07 -791158.79 -796043.41 -801005.07 -720.42515  -700.4617 -1135.0462
                   -1128.2994 -808.03098 -1340.4879        0.0   383.1135    3.67542   2.899907   12.66114   9.989638    .290292
                         400.    .055726    .027707    .220911    .349856   1.232395    .015939    .008473   801.9593   16.03919
                          1.0        1.0        0.0        0.0        0.0
Times of minima :     .069982    .076876    .083229    .069982    .076876    .083229    .069982    .076876    .083229        0.0
                          0.0        0.0    .069338    .076885    .081753        .01    .016667    .103333    .068738    .075802
                      .081722    .068755    .075287     .10096    .068755    .075287     .10096    .074101    .057341    .063884
                      .074933     .10153    .068238        0.0        0.0        0.0        0.0        0.0        0.0        0.0
                          0.0        0.0        0.0        0.0        0.0        0.0        0.0        0.0        0.0        0.0
                          0.0        0.0        0.0        0.0        0.0

Blank card terminating all plot cards.            |BLANK PLOT

Memory storage figures for the preceding, now-completed data case.  -------------------------------  Present   Program
A value of  "-9999"  indicates that no figure is available.         28-Feb-22  19:11:48              figure     limit  (name)
     Size List 1.   Number of electric network nodes.                                                   37      6000  (LBUS)
     Size List 2.   Number of electric network branches.                                                39     10000  (LBRNCH)
     Size List 3.   Number of data values in R, L, C tables.                                            45    192000  (LDATA)
     Size List 4.   Number of electric network sources.                                                  3       900  (LEXCT)
     Size List 5.   Storage for [Y] and triangularized [Y].   No. times =    3     Factors =    66     189    420000  (LYMAT)
     Size List 6.   Number of entries in switch table.                  No. flops = 18                  21      1200  (LSWTCH)
     Size List 7.   Number of distinct ALPHANUMERIC data names plus program SPY variables.              25     15000  (LSIZE7)
     Size List 8.   History points of distributed lines.                                              5442    120000  (LPAST)
     Size List 9.   Number of nonlinear elements.                                                        0      2250  (LNONL)
     Size List 10.  Points of nonlinear characteristics.                                                 0      3800  (LCHAR)
     Size List 11.  Number of Type-59 S.M. outputs.                                                      0       720  (LSMOUT)
     Size List 12.  Total number of EMTP output variables.                                              55      2000  (LSIZ12)
     Size List 13.  Working space for batch/SPY plotting.                                            -9999     72800  (LSIZ13)
     Size List 14.  S.M./U.M. connections to TACS.                                                   -9999       510  (LBSTAC)
     Size List 15.  Character storage in bytes for MODELS.                                            3297     90000  (LCTACS)
     Size List 16.  Total number of Type-59 S.M. masses.                                                 0       800  (LIMASS)
     Size List 17.  Number of Type-59 Synchronous machines.                                              0        90  (LSYN)
     Size List 18.  Branch and switch power/energy outputs.                                              0       254  (MAXPE)
     Size List 19.  Total floating-point TACS table space.                                              23    120000  (LTACST)
     Size List 20.  Non-copied recursive convolution data.                                               0    100000  (LFSEM)
     Size List 21.  Total modal/phase [T] matrix storage.                                                9      3000  (LFD)
     Size List 22.  Total recursive convolution history.                                                 0     15000  (LHIST)
     Size List 23.  Giant vectors for renumbering, phasors;  also extrema accumulation.                  93    192000  (LSIZ23)
     Size List 24.  Peak phases of compensation for data.                                                0       120  (LCOMP)
     Size List 25.  Total table space for all U.M usage.                                             -9999     45000  (LSPCUM)
     Size List 26.  Square of max number of coupled phases.                                              9    260000  (LSIZ26)
     Size List 27.  Maximum number of MODELS top variables.                                             44       600  (LSIZ27)
     Size List 28.  MODELS.  Total work space is divided into INTEGER and REAL.  1st, REAL:           1780    210000  (LRTACS)
                             Second  and last,  statistics for INTEGER work space.                    6838         0  (LITACS)
     Size List 29.  RAM disk used by "TAPSAV" table saving (limit is "LABCOM" size LTLABL).          -9999       600  (LSIZ29)
     Size List 30.  Taku Noda frequency-dependent circuits.                                              0        19  (LSIZ30)
Timing figures characterizing central processor (CP) solution speed.  ----------------------------   CP sec  Wait sec  Real sec
     Data input time (through blank card ending branches) ....                                       0.016     0.000     0.016
     Node renumbering and phasor solution  ....                                                      0.031     0.000     0.031
     After phasor solution, but before time-step loop  ....                                          0.000     0.000     0.000
     Integration of equations (time-step loop)  ....                                                 1.078     0.000     1.078
     Plotting or STATISTICS termination overlays ....                                                0.000     0.000     0.000
                                                                                                    ---------------------------
                                                                                          Totals      1.125     0.000     1.125

