   ---   236   cards of disk file read into card cache cells  1   onward.
 Comment card is ignored.      |C   LBUS  LBRNCH   LDATA   LEXCT   LYMAT  LSWTCH
 Limit CIDEAL cards =   200    |CARDS        200 { Limit of CIDEAL will be 2 mor
 1st card (Lists  1-10).       |    6000   10000  192000     900  420000    120
 Comment card is ignored.      |C LSMOUT  LSIZ12  LSIZ13  LBSTAC  LCTACS  LIMASS
 2nd card (Lists 11-20).       |     720    2000   72800     510   90000     80
 Comment card is ignored.      |C    LFD   LHIST  LSIZ23   NCOMP  LSPCUM  LSIZ26
 3rd card (Lists 21-30).       |    3000   15000  192000     120   45000  26000
 4th card (Lists 31-32).       |     200     300     { Optional card for Lists
 Comment card is ignored.      |C  LWORK  LMARTI
 Supplemental offsets.         |  840000     742
 <===> Done with  "/"-card sorting by data class.    Remember that the source file appears different from interpreted input data.
Alternative Transients Program (ATP),  GNU Linux or DOS.  All rights reserved by Can/Am user group of Portland, Oregon, USA.
 Date (dd-mth-yy) and time of day (hh.mm.ss) = 28-Feb-22  19:33:18   Name of disk plot file is  draw6.3\bernal\energizacion2144.pl4
Consult the 860-page ATP Rule Book of the Can/Am EMTP User Group in Portland,  Oregon, USA.  Source code date is 12 August 2008.
Total size of LABCOM tables = 10913436 INTEGER words.  31 VARDIM  List Sizes follow:  6002  10K  192K  900  420K  1200  15K
  120K  2250  3800  720  2K  72800  510  90K  800  90  254  120K  100K  3K  15K  192K  120  45K  260K  600  210K  1100  60  200
--------------------------------------------------+--------------------------------------------------------------------------------
Descriptive interpretation of input data cards.   |  Input data card images are shown below, all 80 columns, character by character
                                                  0         1         2         3         4         5         6         7         8
                                                  012345678901234567890123456789012345678901234567890123456789012345678901234567890
--------------------------------------------------+--------------------------------------------------------------------------------
Comment card.   NUMDCD = 1.                       |C data:C:\ATP\ATPDRAW6.3\BERNAL\ENERGIZACION2144.ATP
Marker card preceding new EMTP data case.         |BEGIN NEW DATA CASE
Comment card.   NUMDCD = 3.                       |C --------------------------------------------------------
Comment card.   NUMDCD = 4.                       |C Generated by ATPDRAW  febrero, lunes 28, 2022
Comment card.   NUMDCD = 5.                       |C A Bonneville Power Administration program
Comment card.   NUMDCD = 6.                       |C by H. K. Høidalen at SEfAS/NTNU - NORWAY 1994-2016
Comment card.   NUMDCD = 7.                       |C --------------------------------------------------------
Comment card.   NUMDCD = 8.                       |C  dT  >< Tmax >< Xopt >< Copt ><Epsiln>
Misc. data.     1.000E-06   1.200E-01   5.000E+01 |   1.E-6     .12     50.
Misc. data.    500    1  0  1  1  0  0  0  0  0   |     500       1       0       1       1       0       0       0       0
  ///  Warning.  Nonzero XOPT or COPT differs from the power frequency of  6.00000000E+01  Hz.   Did the user really want this?
No TACS data,  but MODELS data begins (next).     |MODELS
      Another ordinary MODELS data card.          |OUTPUT
      Another ordinary MODELS data card.          |  AnVol
      Another ordinary MODELS data card.          |  LONG
      Another ordinary MODELS data card.          |  R0F
      Another ordinary MODELS data card.          |  R1F
      Another ordinary MODELS data card.          |  X0F
      Another ordinary MODELS data card.          |  X1F
      Another ordinary MODELS data card.          |  RDIVX
      Another ordinary MODELS data card.          |  RINSER
      Another ordinary MODELS data card.          |  CLOSE1
      Another ordinary MODELS data card.          |  RPpos
      Another ordinary MODELS data card.          |  RPcero
      Another ordinary MODELS data card.          |  LPpos
      Another ordinary MODELS data card.          |  LPcero
      Another ordinary MODELS data card.          |  CPpos
      Another ordinary MODELS data card.          |  CPcero
      Another ordinary MODELS data card.          |  Xp
      Another ordinary MODELS data card.          |  CR
      Another ordinary MODELS data card.          |  SIMET
      Another ordinary MODELS data card.          |  ENC1
      Another ordinary MODELS data card.          |  ENC2
      Another ordinary MODELS data card.          |  ENC1AS
      Another ordinary MODELS data card.          |  ENC2AS
      Another ordinary MODELS data card.          |MODEL DEFAULT
      Another ordinary MODELS data card.          |DATA AnVol,LONG,R0F,R1F,X0F,X1F,RDIVX,RINSER,CLOSE1,RPpos,RPcero,LPpos,LPcero
      Another ordinary MODELS data card.          |OUTPUT o1,o2,o3, o4, o5, o6, o7, o8, o9, o10, o11, o12, o13
      Another ordinary MODELS data card.          |VAR o1,o2,o3, o4, o5, o6, o7, o8, o9, o10, o11, o12, o13
      Another ordinary MODELS data card.          |INIT
      Another ordinary MODELS data card.          |  o1:=AnVol
      Another ordinary MODELS data card.          |  o2:=LONG
      Another ordinary MODELS data card.          |  o3:=R0F
      Another ordinary MODELS data card.          |  o4:=R1F
      Another ordinary MODELS data card.          |  o5:=X0F
      Another ordinary MODELS data card.          |  O6:=X1F
      Another ordinary MODELS data card.          |  o7:=RDIVX
      Another ordinary MODELS data card.          |  o8:=RINSER
      Another ordinary MODELS data card.          |  o9:=CLOSE1
      Another ordinary MODELS data card.          |  o10:=RPpos
      Another ordinary MODELS data card.          |  o11:=RPcero
      Another ordinary MODELS data card.          |  o12:=LPpos
      Another ordinary MODELS data card.          |  o13:=LPcero
      Another ordinary MODELS data card.          |
      Another ordinary MODELS data card.          |ENDINIT
      Another ordinary MODELS data card.          |EXEC
      Another ordinary MODELS data card.          |ENDEXEC
      Another ordinary MODELS data card.          |ENDMODEL
      Another ordinary MODELS data card.          |MODEL DEFAULT1
      Another ordinary MODELS data card.          |DATA CPpos,CPcero,Xp,CR,SIMET,ENC1,ENC2,ENC1AS,ENC2AS
      Another ordinary MODELS data card.          |OUTPUT o1, o2, o3, o4, o5, o6, o7, o8, o9
      Another ordinary MODELS data card.          |VAR o1, o2, o3, o4, o5, o6, o7, o8, o9
      Another ordinary MODELS data card.          |INIT
      Another ordinary MODELS data card.          |  o1:=CPpos
      Another ordinary MODELS data card.          |  o2:=CPcero
      Another ordinary MODELS data card.          |  o3:=Xp
      Another ordinary MODELS data card.          |  o4:=CR
      Another ordinary MODELS data card.          |  o5:=SIMET
      Another ordinary MODELS data card.          |  o6:=ENC1
      Another ordinary MODELS data card.          |  o7:=ENC2
      Another ordinary MODELS data card.          |  o8:=ENC1AS
      Another ordinary MODELS data card.          |  o9:=ENC2AS
      Another ordinary MODELS data card.          |
      Another ordinary MODELS data card.          |ENDINIT
      Another ordinary MODELS data card.          |EXEC
      Another ordinary MODELS data card.          |ENDEXEC
      Another ordinary MODELS data card.          |ENDMODEL
      Another ordinary MODELS data card.          |USE DEFAULT AS DEFAULT
      Another ordinary MODELS data card.          |DATA
      Another ordinary MODELS data card.          |  AnVol:=      0.0
      Another ordinary MODELS data card.          |  LONG:= 22.88553
      Another ordinary MODELS data card.          |  R0F:= 1.260689
      Another ordinary MODELS data card.          |  R1F:= 1.620437
      Another ordinary MODELS data card.          |  X0F:= 4.722153
      Another ordinary MODELS data card.          |  X1F:= 6.069659
      Another ordinary MODELS data card.          |  RDIVX:= 0.266973
      Another ordinary MODELS data card.          |  RINSER:=     360.
      Another ordinary MODELS data card.          |  CLOSE1:= 0.050759
      Another ordinary MODELS data card.          |  RPpos:= 0.030166
      Another ordinary MODELS data card.          |  RPcero:= 0.246601
      Another ordinary MODELS data card.          |  LPpos:= 0.278975
      Another ordinary MODELS data card.          |  LPcero:= 1.278846
      Another ordinary MODELS data card.          |OUTPUT
      Another ordinary MODELS data card.          |  AnVol:=o1
      Another ordinary MODELS data card.          |  LONG:=o2
      Another ordinary MODELS data card.          |  R0F:=o3
      Another ordinary MODELS data card.          |  R1F:=o4
      Another ordinary MODELS data card.          |  X0F:=o5
      Another ordinary MODELS data card.          |  X1F:=o6
      Another ordinary MODELS data card.          |  RDIVX:=o7
      Another ordinary MODELS data card.          |  RINSER:=o8
      Another ordinary MODELS data card.          |  CLOSE1:=o9
      Another ordinary MODELS data card.          |  RPpos:=o10
      Another ordinary MODELS data card.          |  RPcero:=o11
      Another ordinary MODELS data card.          |  LPpos:=o12
      Another ordinary MODELS data card.          |  LPcero:=o13
      Another ordinary MODELS data card.          |ENDUSE
      Another ordinary MODELS data card.          |USE DEFAULT1 AS DEF
      Another ordinary MODELS data card.          |DATA
      Another ordinary MODELS data card.          |  CPpos:=  0.00914
      Another ordinary MODELS data card.          |  CPcero:= 0.007626
      Another ordinary MODELS data card.          |  Xp:= 23410.77
      Another ordinary MODELS data card.          |  CR:= 468.2153
      Another ordinary MODELS data card.          |  SIMET:=       1.
      Another ordinary MODELS data card.          |  ENC1:=      0.0
      Another ordinary MODELS data card.          |  ENC2:=      0.0
      Another ordinary MODELS data card.          |  ENC1AS:=      0.0
      Another ordinary MODELS data card.          |  ENC2AS:=      0.0
      Another ordinary MODELS data card.          |OUTPUT
      Another ordinary MODELS data card.          |  CPpos:=o1
      Another ordinary MODELS data card.          |  CPcero:=o2
      Another ordinary MODELS data card.          |  Xp:=o3
      Another ordinary MODELS data card.          |  CR:=o4
      Another ordinary MODELS data card.          |  SIMET:=o5
      Another ordinary MODELS data card.          |  ENC1:=o6
      Another ordinary MODELS data card.          |  ENC2:=o7
      Another ordinary MODELS data card.          |  ENC1AS:=o8
      Another ordinary MODELS data card.          |  ENC2AS:=o9
      Another ordinary MODELS data card.          |ENDUSE
      Another ordinary MODELS data card.          |RECORD
      Another ordinary MODELS data card.          |  DEFAULT.o1 AS AnVOL
      Another ordinary MODELS data card.          |  DEFAULT.o2 AS LONG
      Another ordinary MODELS data card.          |  DEFAULT.o3 AS R0F
      Another ordinary MODELS data card.          |  DEFAULT.o4 AS R1F
      Another ordinary MODELS data card.          |  DEFAULT.o5 AS X0F
      Another ordinary MODELS data card.          |  DEFAULT.o6 AS X1F
      Another ordinary MODELS data card.          |  DEFAULT.o7 AS RDIVX
      Another ordinary MODELS data card.          |  DEFAULT.o8 AS RINSER
      Another ordinary MODELS data card.          |  DEFAULT.o9 AS CLOSE1
      Another ordinary MODELS data card.          |  DEFAULT.o10 AS RPpos
      Another ordinary MODELS data card.          |  DEFAULT.o11 AS RPcero
      Another ordinary MODELS data card.          |  DEFAULT.o12 AS LPpos
      Another ordinary MODELS data card.          |  DEFAULT.o13 AS LPcero
      Another ordinary MODELS data card.          |  DEF.o1 AS CPpos
      Another ordinary MODELS data card.          |  DEF.o2 AS CPcero
      Another ordinary MODELS data card.          |  DEF.o3 AS Xp
      Another ordinary MODELS data card.          |  DEF.o4 AS CR
      Another ordinary MODELS data card.          |  DEF.o5 AS SIMET
      Another ordinary MODELS data card.          |  DEF.o6 AS ENC1
      Another ordinary MODELS data card.          |  DEF.o7 AS ENC2
      Another ordinary MODELS data card.          |  DEF.o8 AS ENC1AS
      Another ordinary MODELS data card.          |  DEF.o9 AS ENC2AS
Termination of data for Laurent Dube`s MODELS.    |ENDMODELS
Comment card.   NUMDCD = 153.                     |C        1         2         3         4         5         6         7         8
Comment card.   NUMDCD = 154.                     |C 345678901234567890123456789012345678901234567890123456789012345678901234567890
Optional blank card follows last of MODELS data.  |BLANK MODELS
Comment card.   NUMDCD = 156.                     |C < n1 >< n2 ><ref1><ref2>< R  >< L  >< C  >
Comment card.   NUMDCD = 157.                     |C < n1 >< n2 ><ref1><ref2>< R  >< A  >< B  ><Leng><><>0
1st of coupled R-L.   1.26070E+00  1.50311E-02    |51IFUENASB1A              1.26074.7221532659
2nd coil. 1.620E+00 1.932E-02 0.000E+00 0.000E+00 |52IFUENBSB1B              1.62046.0696592463
Zca, Zcc=-1.199E-01-1.430E-03 1.500E+00 1.789E-02 |53IFUENCSB1C
Series R-L-C.   1.000E+09  0.000E+00  0.000E+00   |  SB1A                      1.E9                                               0
Series R-L-C.   1.000E+09  0.000E+00  0.000E+00   |  SB1B                      1.E9                                               0
Series R-L-C.   1.000E+09  0.000E+00  0.000E+00   |  SB1C                      1.E9                                               0
Series R-L-C.   1.000E+09  0.000E+00  0.000E+00   |  RSNSHA                    1.E9                                               0
Series R-L-C.   1.000E+09  0.000E+00  0.000E+00   |  RSNSHB                    1.E9                                               0
Series R-L-C.   1.000E+09  0.000E+00  0.000E+00   |  RSNSHC                    1.E9                                               0
Series R-L-C.   1.000E+09  0.000E+00  0.000E+00   |  RSNNHA                    1.E9                                               0
Series R-L-C.   1.000E+09  0.000E+00  0.000E+00   |  RSNNHB                    1.E9                                               0
Series R-L-C.   1.000E+09  0.000E+00  0.000E+00   |  RSNNHC                    1.E9                                               0
Series R-L-C.   1.000E+09  0.000E+00  0.000E+00   |  SE2A                      1.E9                                               0
Series R-L-C.   1.000E+09  0.000E+00  0.000E+00   |  SE2B                      1.E9                                               0
Series R-L-C.   1.000E+09  0.000E+00  0.000E+00   |  SE2C                      1.E9                                               0
Series R-L-C.   2.500E+02  0.000E+00  3.000E-10   |  X0001B                    250.       .0003                                   0
Series R-L-C.   2.500E+02  0.000E+00  3.000E-10   |  X0002B                    250.       .0003                                   0
Series R-L-C.   1.000E-06  0.000E+00  0.000E+00   |  X0001ALN1A               1.E-6                                               0
Series R-L-C.   1.000E-06  0.000E+00  0.000E+00   |  SB1A  X0002A             1.E-6                                               0
Series R-L-C.   1.000E-06  0.000E+00  0.000E+00   |  X0001BLN1B               1.E-6                                               0
Series R-L-C.   1.000E-06  0.000E+00  0.000E+00   |  SB1B  X0002B             1.E-6                                               0
Series R-L-C.   1.000E-06  0.000E+00  0.000E+00   |  X0001CLN1C               1.E-6                                               0
Series R-L-C.   1.000E-06  0.000E+00  0.000E+00   |  SB1C  X0002C             1.E-6                                               0
Series R-L-C.   3.600E+02  0.000E+00  0.000E+00   |  XX0005X0002A              360.                                               0
Series R-L-C.   3.600E+02  0.000E+00  0.000E+00   |  XX0003X0002B              360.                                               0
Series R-L-C.   3.600E+02  0.000E+00  0.000E+00   |  XX0004X0002C              360.                                               0
Series R-L-C.   2.500E+02  0.000E+00  3.000E-10   |  X0001A                    250.       .0003                                   0
Series R-L-C.   1.000E+06  0.000E+00  0.000E+00   |  X0001AX0002A              1.E6                                               0
Series R-L-C.   1.000E+06  0.000E+00  0.000E+00   |  X0001BX0002B              1.E6                                               0
Series R-L-C.   1.000E+06  0.000E+00  0.000E+00   |  X0001CX0002C              1.E6                                               0
Series R-L-C.   2.500E+02  0.000E+00  3.000E-10   |  X0002C                    250.       .0003                                   0
Series R-L-C.   2.500E+02  0.000E+00  3.000E-10   |  X0002A                    250.       .0003                                   0
Series R-L-C.   2.500E+02  0.000E+00  3.000E-10   |  X0001C                    250.       .0003                                   0
Series R-L-C.   1.250E+02  0.000E+00  6.000E-10   |  X0001AX0002A              125.       .0006                                   0
Series R-L-C.   1.250E+02  0.000E+00  6.000E-10   |  X0001BX0002B              125.       .0006                                   0
Series R-L-C.   1.250E+02  0.000E+00  6.000E-10   |  X0001CX0002C              125.       .0006                                   0
 2.466E-01 1.279E+00 7.630E-03 7.304E+02 1.275E-04|-1LN1A  VFF2A              .24661.2788.0076322.886 0 0                         0
 3.017E-02 2.790E-01 9.140E-03 3.117E+02 6.520E-05|-2LN1B  VFF2B             .03017.27898.0091422.886 0 0                         0
3rd or later transposed distributed phase.        |-3LN1C  VFF2C                                                                  0
Blank card ending branches.  IBR, NTOT = 39  31   |BLANK BRANCH
Comment card.   NUMDCD = 198.                     |C < n 1>< n 2>< Tclose ><Top/Tde ><   Ie   ><Vf/CLOP ><  type  >
Switch.  -1.00E+00  1.00E+01  0.00E+00  0.00E+00  |  LN1A  COMPA        -1.       10.                                             0
Switch.  -1.00E+00  1.00E+01  0.00E+00  0.00E+00  |  LN1B  COMPB        -1.       10.                                             0
Switch.  -1.00E+00  1.00E+01  0.00E+00  0.00E+00  |  LN1C  COMPC        -1.       10.                                             0
Switch.  -1.00E+00  1.00E+01  0.00E+00  0.00E+00  |  VFF2A RSNNHA       -1.       10.                                             0
Switch.  -1.00E+00  1.00E+01  0.00E+00  0.00E+00  |  VFF2B RSNNHB       -1.       10.                                             0
Switch.  -1.00E+00  1.00E+01  0.00E+00  0.00E+00  |  VFF2C RSNNHC       -1.       10.                                             0
Switch.   2.00E+00 -1.00E+00  0.00E+00  0.00E+00  |  VFF2A SE2A          2.       -1.                                             0
Switch.   2.00E+00 -1.00E+00  0.00E+00  0.00E+00  |  VFF2B SE2B          2.       -1.                                             0
Switch.   2.00E+00 -1.00E+00  0.00E+00  0.00E+00  |  VFF2C SE2C          2.       -1.                                             0
Switch.   5.08E-02  1.00E+03  0.00E+00  0.00E+00  |  X0001BXX0003 .05075929      1.E3                                             0
Switch.   5.08E-02  1.00E+03  0.00E+00  0.00E+00  |  X0001CXX0004 .05075929      1.E3                                             0
Switch.   5.83E-02  1.00E+03  0.00E+00  0.00E+00  |  XX0005X0002A .05825929      1.E3                                             0
Switch.   5.83E-02  1.00E+03  0.00E+00  0.00E+00  |  XX0003X0002B .05825929      1.E3                                             0
Switch.   5.83E-02  1.00E+03  0.00E+00  0.00E+00  |  XX0004X0002C .05825929      1.E3                                             0
Switch.   5.08E-02  1.00E+03  0.00E+00  0.00E+00  |  X0001AXX0005 .05075929      1.E3                                             0
Permanently-closed switch used for metering.      |  VFUENAIFUENA                                        MEASURING                1
Permanently-closed switch used for metering.      |  VFUENBIFUENB                                        MEASURING                1
Permanently-closed switch used for metering.      |  VFUENCIFUENC                                        MEASURING                1
Permanently-closed switch used for metering.      |  COMPA RSNSHA                                        MEASURING                1
Permanently-closed switch used for metering.      |  COMPB RSNSHB                                        MEASURING                1
Permanently-closed switch used for metering.      |  COMPC RSNSHC                                        MEASURING                1
Blank card ending switches.   KSWTCH = 21.        |BLANK SWITCH
Comment card.   NUMDCD = 221.                     |C < n 1><>< Ampl.  >< Freq.  ><Phase/T0><   A1   ><   T1   >< TSTART >< TSTOP  >
Source.   4.29E+05  5.00E+01  0.00E+00 -1.00E+00  |14VFUENA  428660.705       50.                                     -1.      100.
Source.   4.29E+05  5.00E+01 -1.20E+02 -1.00E+00  |14VFUENB  428660.705       50.     -120.                           -1.      100.
Source.   4.29E+05  5.00E+01 -2.40E+02 -1.00E+00  |14VFUENC  428660.705       50.     -240.                           -1.      100.
Blank card ends electric sources.  KCONST = 3     |BLANK SOURCE
Pi-equivalent branches of distributed circuits are added to the table of List Size 3 between indices  40   and  45.

Sinusoidal steady-state phasor solution, branch by branch.   All flows are away from a bus,  and the real part,  magnitude,  or  "P"
is printed above the imaginary part,  the angle,  or  "Q".   The first solution frequency  =  5.00000000E+01  Hertz.
  Bus K                        Phasor  node  voltage              Phasor  branch  current               Power flow       Power loss
             Bus M         Rectangular            Polar          Rectangular            Polar            P  and  Q        P  and  Q

 IFUENA                    428660.705       428660.705      .42655863450939  .44518411581839      91424.462496317   .1605726443311
                                  0.0              0.0       .1274230289331       16.6321142      -27310.62270785        0.6014695

            SB1A      428660.78721875  428660.78722787      -.4265586345094  .44518411581839      -91424.30192367
                      -2.795541836127       -0.0003737      -.1274230289331     -163.3678858      27311.224177384

 IFUENB                  -214330.3525       428660.705      -.1029277371813   .4451841158198      91424.462497207  .16057264433066
                      -371231.0601341     -120.0000000      -.4331221281544     -103.3678858      -27310.62270592        0.6014695

            SB1B      -214332.8146196  428660.78722787      .10292773718134   .4451841158198      -91424.30192456
                      -371229.7335668     -120.0003737      .43312212815438       76.6321142      27311.224175456

 IFUENC                  -214330.3525       428660.705      -.3236308973388  .44518411581643       91424.46249571  .16057264433014
                      371231.06013415      120.0000000      .30569909921842      136.6321142      -27310.62270841        0.6014695

            SB1C      -214327.9725991  428660.78722787      .32363089733878  .44518411581643      -91424.30192307
                       371232.5291086      119.9996263      -.3056990992184      -43.3678858      27311.224177947

 SB1A                 428660.78721875  428660.78722787      .42866078722E-3  .42866078723E-3      91.875035253409  91.875035253409
                      -2.795541836127       -0.0003737      -.2795541836E-8       -0.0003737      .4865145491E-19        0.0000000

            TERRA                 0.0              0.0      -.4286607872E-3  .42866078723E-3                  0.0
                                  0.0              0.0      .27955418361E-8      179.9996263                  0.0

 SB1B                 -214332.8146196  428660.78722787      -.2143328146E-3  .42866078723E-3      91.875035253409  91.875035253409
                      -371229.7335668     -120.0003737      -.3712297336E-3     -120.0003737      -.374700271E-15        0.0000000

            TERRA                 0.0              0.0      .21433281462E-3  .42866078723E-3                  0.0
                                  0.0              0.0      .37122973357E-3       59.9996263                  0.0

 SB1C                 -214327.9725991  428660.78722787      -.2143279726E-3  .42866078723E-3      91.875035253409  91.875035253409
                       371232.5291086      119.9996263      .37123252911E-3      119.9996263      -.627969898E-15        0.0000000

            TERRA                 0.0              0.0       .2143279726E-3  .42866078723E-3                  0.0
                                  0.0              0.0      -.3712325291E-3      -60.0003737                  0.0

 RSNSHA               1322.4657242995  6607.7852933332      .13224657243E-5  .66077852933E-5       .0218314132414   .0218314132414
                      -6474.095372393      -78.4549994      -.6474095372E-5      -78.4549994      .4950907577E-18        0.0000000

            TERRA                 0.0              0.0      -.1322465724E-5  .66077852933E-5                  0.0
                                  0.0              0.0      .64740953724E-5      101.5450006                  0.0

 RSNSHB               -6267.963921167  6607.7852933349      -.6267963921E-5  .66077852933E-5      .02183141324141  .02183141324141
                      2091.7587733199      161.5450006      .20917587733E-5      161.5450006      -.193547028E-18        0.0000000

            TERRA                 0.0              0.0      .62679639212E-5  .66077852933E-5                  0.0
                                  0.0              0.0      -.2091758773E-5      -18.4549994                  0.0

 RSNSHC                4945.498196867  6607.7852933339      .49454981969E-5  .66077852933E-5       .0218314132414   .0218314132414
                      4382.3365990742       41.5450006      .43823365991E-5       41.5450006      -.564123943E-18        0.0000000

            TERRA                 0.0              0.0      -.4945498197E-5  .66077852933E-5                  0.0
                                  0.0              0.0      -.4382336599E-5     -138.4549994                  0.0

 RSNNHA               1322.5962357391  6609.1717584721      .13225962357E-5  .66091717585E-5      .02184057566649  .02184057566649
                      -6475.483806651      -78.4562998      -.6475483807E-5      -78.4562998      .3045083445E-18        0.0000000

            TERRA                 0.0              0.0      -.1322596236E-5  .66091717585E-5                  0.0
                                  0.0              0.0      .64754838067E-5      101.5437002                  0.0

 RSNNHB               -6269.231596225  6609.1717584739      -.6269231596E-5  .66091717585E-5       .0218405756665   .0218405756665
                      2092.3399642264      161.5437002      .20923399642E-5      161.5437002      -.211758237E-18        0.0000000

            TERRA                 0.0              0.0      .62692315962E-5  .66091717585E-5                  0.0
                                  0.0              0.0      -.2092339964E-5      -18.4562998                  0.0

 RSNNHC               4946.6353604855  6609.1717584728      .49466353605E-5  .66091717585E-5       .0218405756665   .0218405756665
                       4383.143842425       41.5437002      .43831438424E-5       41.5437002      .6352747104E-18        0.0000000

            TERRA                 0.0              0.0       -.494663536E-5  .66091717585E-5                  0.0
                                  0.0              0.0      -.4383143842E-5     -138.4562998                  0.0

 X0001B               -6267.963921305   6607.785293335      -.1971575387E-3  .62276909185E-3       .4848016772E-4   .4848016772E-4
                       2091.758772908      161.5450006      -.5907370368E-3     -108.4563494      -2.057562222558       -2.0575622

            TERRA                 0.0              0.0      .19715753874E-3  .62276909185E-3                  0.0
                                  0.0              0.0      .59073703683E-3       71.5436506                  0.0

 X0002B               -214332.8146195  428660.78722744      .03498710213304  .04040032738986      .20402330665127  .20402330665127
                      -371229.7335663     -120.0003737      -.0202012162391      -30.0017237      -8659.018069188    -8659.0180692

            TERRA                 0.0              0.0       -.034987102133  .04040032738986                  0.0
                                  0.0              0.0      .02020121623913      149.9982763                  0.0

 X0001A                1322.465724725  6607.7852933332      .42551027945592  .43429276208187       .0694742973831  .94305101589E-7
                      -6474.095372306      -78.4549994      .08689767128089       11.5422264      -1434.856661461              0.0

            LN1A      1322.4657242995  6607.7852933332      -.4255102794559  .43429276208187       -.069474203078
                      -6474.095372393      -78.4549994      -.0868976712809     -168.4577736      1434.8566614609

 SB1A                 428660.78721875  428660.78722787      .42613828554749  .44478137035212      91334.208365212  .98915229785E-7
                      -2.795541836127       -0.0003737      .12742303168167       16.6476132      -27311.22417894              0.0

            X0002A    428660.78721833  428660.78722744      -.4261382855475  .44478137035212      -91334.20836511
                       -2.79554196355       -0.0003737      -.1274230316817     -163.3523868      27311.224178936

 X0001B               -6267.963921305   6607.785293335      -.1374992280034   .4342930778296      .06800855640218  .94305238729E-7
                       2091.758772908      161.5450006      -.4119519871892     -108.4577151      -1434.857704728              0.0

            LN1B      -6267.963921167  6607.7852933349      .13749922800343   .4342930778296      -.0680084620969
                      2091.7587733199      161.5450006      .41195198718924       71.5422849      1434.8577047281

 SB1B                 -214332.8146196  428660.78722787      -.1027074176818  .44473782727583      91325.261476788  .98895867495E-7
                      -371229.7335668     -120.0003737      -.4327157512307     -103.3523753      -27308.56879509        0.0000000

            X0002B    -214332.8146195  428660.78722744      .10270741768181  .44473782727583      -91325.26147669
                      -371229.7335663     -120.0003737      .43271575123072       76.6476247      27308.568795088

 X0001C               4945.4981965789  6607.7852933339      -.2880105967051  .43429232187038      .06877654251838  .94304910381E-7
                      4382.3365993992       41.5450006      .32505340641364      131.5422543      -1434.855207083              0.0

            LN1C       4945.498196867  6607.7852933339      .28801059670513  .43429232187038      -.0687764482135
                      4382.3365990742       41.5450006      -.3250534064136      -48.4577457      1434.8552070831

 SB1C                 -214327.9725991  428660.78722787      -.3234017640352  .44474294957903      91325.515850195  .98898148337E-7
                       371232.5291086      119.9996263      .30529918149114      136.6492978       -27311.5500879        0.0000000

            X0002C    -214327.9725988  428660.78722744      .32340176403522  .44474294957903       -91325.5158501
                      371232.52910829      119.9996263      -.3052991814911      -43.3507022      27311.550087904

 XX0005               428660.78721833  428660.78722744                  0.0              0.0                  0.0              0.0
                       -2.79554196355       -0.0003737                  0.0              0.0                  0.0              0.0

            X0002A    428660.78721833  428660.78722744                  0.0              0.0                  0.0
                       -2.79554196355       -0.0003737                  0.0              0.0                  0.0

 XX0003               -214332.8146195  428660.78722744                  0.0              0.0                  0.0              0.0
                      -371229.7335663     -120.0003737                  0.0              0.0                  0.0              0.0

            X0002B    -214332.8146195  428660.78722744                  0.0              0.0                  0.0
                      -371229.7335663     -120.0003737                  0.0              0.0                  0.0

 XX0004               -214327.9725988  428660.78722744                  0.0              0.0                  0.0              0.0
                      371232.52910829      119.9996263                  0.0              0.0                  0.0              0.0

            X0002C    -214327.9725988  428660.78722744                  0.0              0.0                  0.0
                      371232.52910829      119.9996263                  0.0              0.0                  0.0

 X0001A                1322.465724725  6607.7852933332      .61017205022E-3  .62276909185E-3       .4848016772E-4   .4848016772E-4
                      -6474.095372306      -78.4549994      .12462508132E-3       11.5436506      -2.057562222557       -2.0575622

            TERRA                 0.0              0.0      -.6101720502E-3  .62276909185E-3                  0.0
                                  0.0              0.0      -.1246250813E-3     -168.4563494                  0.0

 X0001A                1322.465724725  6607.7852933332      -.4273383214936  .42738731700703      -261.6222353762  91329.959369232
                      -6474.095372306      -78.4549994      -.0064712998303     -179.1324208      1387.5935609055        0.0000000

            X0002A    428660.78721833  428660.78722744       .4273383214936  .42738731700703      91591.581604608
                       -2.79554196355       -0.0003737      .00647129983034        0.8675792      -1387.593560905

 X0001B               -6267.963921305   6607.785293335      .20806485069822  .42738731700703      -261.6222353762  91329.959369232
                       2091.758772908      161.5450006      .37332149233923       60.8675792      1387.5935609058        0.0000000

            X0002B    -214332.8146195  428660.78722744      -.2080648506982  .42738731700703      91591.581604608
                      -371229.7335663     -120.0003737      -.3733214923392     -119.1324208      -1387.593560906

 X0001C               4945.4981965789  6607.7852933339      .21927347079539  .42738731700703      -261.6222353761  91329.959369232
                      4382.3365993992       41.5450006      -.3668501925089      -59.1324208      1387.5935609056        0.0000000

            X0002C    -214327.9725988  428660.78722744      -.2192734707954  .42738731700703      91591.581604609
                      371232.52910829      119.9996263      .36685019250889      120.8675792      -1387.593560906

 X0002C               -214327.9725988  428660.78722744      -.0349883175169  .04040032738986      .20402330665085  .20402330665085
                      371232.52910829      119.9996263      -.0201991111324     -150.0017237      -8659.018069188    -8659.0180692

            TERRA                 0.0              0.0      .03498831751695  .04040032738986                  0.0
                                  0.0              0.0      .02019911113245       29.9982763                  0.0

 X0002A               428660.78721833  428660.78722744      .12153839104E-5  .04040032738986      .20402330665097  .20402330665097
                       -2.79554196355       -0.0003737      .04040032737158       89.9982763      -8659.018069188    -8659.0180692

            TERRA                 0.0              0.0       -.121538391E-5  .04040032738986                  0.0
                                  0.0              0.0      -.0404003273716      -90.0017237                  0.0

 X0001C               4945.4981965789  6607.7852933339      -.4130145115E-3  .62276909185E-3       .4848016772E-4   .4848016772E-4
                      4382.3365993992       41.5450006      .46611195551E-3      131.5436506      -2.057562222558       -2.0575622

            TERRA                 0.0              0.0      .41301451148E-3  .62276909185E-3                  0.0
                                  0.0              0.0      -.4661119555E-3      -48.4563494                  0.0

 X0001A                1322.465724725  6607.7852933332      .00121791333261  .08056061129844      261.55406213276  .40562575579865
                      -6474.095372306      -78.4549994      -.0805514045805      -89.1337708      49.320792282814   -17215.2917549

            X0002A    428660.78721833  428660.78722744      -.0012179133326  .08056061129844       -261.148436377
                       -2.79554196355       -0.0003737      .08055140458051       90.8662292      -17264.61254715

 X0001B               -6267.963921305   6607.785293335      -.0703685193435  .08056061129844      261.55406213283  .40562575579944
                       2091.758772908      161.5450006       .0392209584046      150.8662292      49.320792282815   -17215.2917549

            X0002B    -214332.8146195  428660.78722744      .07036851934355  .08056061129844       -261.148436377
                      -371229.7335663     -120.0003737      -.0392209584046      -29.1337708      -17264.61254715

 X0001C               4945.4981965789  6607.7852933339      .06915060601093  .08056061129844      261.55406213279  .40562575579915
                      4382.3365993992       41.5450006      .04133044617591       30.8662292      49.320792282797   -17215.2917549

            X0002C    -214327.9725988  428660.78722744      -.0691506060109  .08056061129844       -261.148436377
                      371232.52910829      119.9996263      -.0413304461759     -149.1337708      -17264.61254715

 LN1A                 1322.4657242995  6607.7852933332      .42550891160156  .43429280099612      .04625952211963   .0244189464431
                      -6474.095372393      -78.4549994      .08690456342858       11.5431534      -1434.856790966    -1434.8567910

            VFF2A     1322.5962357391  6609.1717584721      -.1322596351E-5  .66091717615E-5      -.0218405756765
                      -6475.483806651      -78.4562998      .64754837861E-5      101.5437012      .38777013743E-9

 LN1B                 -6267.963921167  6607.7852933349      -.1374928961668  .43429280099617      .04625952199257  .02441894644226
                      2091.7587733199      161.5450006       -.411953808698     -108.4568466      -1434.856790966    -1434.8567910

            VFF2B     -6269.231596225  6609.1717584739       .6269231583E-5  .66091717233E-5      -.0218405755503
                      2092.3399642264      161.5437002      -.2092339893E-5      -18.4562993      .21007500179E-9

 LN1C                  4945.498196867  6607.7852933339      -.2880160154347  .43429280099611      .04625952191769  .02441894646217
                      4382.3365990742       41.5450006      .32504924526931      131.5431534      -1434.856790966    -1434.8567910

            VFF2C     4946.6353604855  6609.1717584728      -.4946635266E-5  .66091716946E-5      -.0218405754555
                       4383.143842425       41.5437002      -.4383143852E-5     -138.4562992      .23075055459E-9
     Total network loss  P-loss  by summing injections =   2.742635728542E+05

Output for steady-state phasor switch currents.
      Node-K    Node-M            I-real            I-imag            I-magn          Degrees        Power            Reactive
      LN1A      COMPA         1.51784577E-06   -6.62002490E-06    6.79180282E-06     -77.0864    2.24329858E-02   -5.35961109E-04
      LN1B      COMPB        -6.49206518E-06    2.02078006E-06    6.79929867E-06     162.7102    2.24595074E-02   -4.56828899E-04
      LN1C      COMPC         5.84243641E-06    4.53369950E-06    7.39516696E-06      37.8113    2.43809780E-02    1.59106009E-03
      VFF2A     RSNNHA        1.32259634E-06   -6.47548382E-06    6.60917179E-06     -78.4563    2.18405758E-02   -3.19018463E-10
      VFF2B     RSNNHB       -6.26923160E-06    2.09233986E-06    6.60917173E-06     161.5437    2.18405756E-02   -3.21125657E-10
      VFF2C     RSNNHC        4.94663531E-06    4.38314378E-06    6.60917167E-06      41.5437    2.18405754E-02    4.69156705E-11
      VFF2A     SE2A              Open              Open              Open             Open          Open              Open
      VFF2B     SE2B              Open              Open              Open             Open          Open              Open
      VFF2C     SE2C              Open              Open              Open             Open          Open              Open
      X0001B    XX0003            Open              Open              Open             Open          Open              Open
      X0001C    XX0004            Open              Open              Open             Open          Open              Open
      XX0005    X0002A            Open              Open              Open             Open          Open              Open
      XX0003    X0002B            Open              Open              Open             Open          Open              Open
      XX0004    X0002C            Open              Open              Open             Open          Open              Open
      X0001A    XX0005            Open              Open              Open             Open          Open              Open
      VFUENA    IFUENA        4.26558635E-01    1.27423029E-01    4.45184116E-01      16.6321    9.14244625E+04   -2.73106227E+04
      VFUENB    IFUENB       -1.02927737E-01   -4.33122128E-01    4.45184116E-01    -103.3679    9.14244625E+04   -2.73106227E+04
      VFUENC    IFUENC       -3.23630897E-01    3.05699099E-01    4.45184116E-01     136.6321    9.14244625E+04   -2.73106227E+04
      COMPA     RSNSHA        1.51784577E-06   -6.62002490E-06    6.79180282E-06     -77.0864    2.24329858E-02   -5.35961109E-04
      COMPB     RSNSHB       -6.49206518E-06    2.02078006E-06    6.79929867E-06     162.7102    2.24595074E-02   -4.56828899E-04
      COMPC     RSNSHC        5.84243641E-06    4.53369950E-06    7.39516696E-06      37.8113    2.43809780E-02    1.59106009E-03

Solution at nodes with known voltage.   Nodes that are shorted together by switches are shown as a group of names, with the printed
result applying to the composite group.   The entry "MVA" is  SQRT( P**2 + Q**2 )  in units of power,  while  "P.F."  is the
associated power factor.
              Node                Source  node  voltage             Injected  source  current              Injected  source  power
              name         Rectangular            Polar          Rectangular            Polar            P  and  Q    MVA and P.F.

               VFUENA
              IFUENA       428660.705       428660.705      .42655863451173  .44518411582344      91424.462496817  95416.468471839
                                  0.0              0.0      .12742302894292       16.6321142      -27310.62270995        0.9581623

               VFUENB
              IFUENB     -214330.3525       428660.705      -.1029277371802  .44518411582068      91424.462497304  95416.468471247
                      -371231.0601341     -120.0000000      -.4331221281556     -103.3678858      -27310.62270626        0.9581623

               VFUENC
              IFUENC     -214330.3525       428660.705      -.3236308973363   .4451841158126      91424.462494896  95416.468469516
                      371231.06013415      120.0000000      .30569909921547      136.6321142      -27310.62270827        0.9581623

  +++  Node  "COMPC "  has no connected linear branches.  Add (to ground) the conductance  G = 1.00000000E-18  mhos.
  +++  Node  "COMPB "  has no connected linear branches.  Add (to ground) the conductance  G = 1.00000000E-18  mhos.
  +++  Node  "COMPA "  has no connected linear branches.  Add (to ground) the conductance  G = 1.00000000E-18  mhos.
Card of names for time-step loop output.          |  LN1A  LN1B  LN1C  COMPA COMPB COMPC SB1A  SB1B  SB1C  SE2A  SE2B  SE2C  VFF2A
Card of names for time-step loop output.          |  VFF2B VFF2C IFUENAIFUENBIFUENC
Card of names for time-step loop output.          |-5VFF2A VFF2B VFF2B VFF2C VFF2C VFF2A LN1A  LN1B  LN1B  LN1C  LN1C  LN1A
Card of names for time-step loop output.          |-5SB1A  SB1B  SB1B  SB1C  SB1C  SB1A
Blank card ending requests for output variables.  |BLANK OUTPUT

Column headings for the  55   EMTP output variables follow.  These are divided among the 5 possible classes as follows ....
  First  27     output variables are electric-network voltage differences (upper voltage minus lower voltage);
  Next   6     output variables are branch currents (flowing from the upper node to the lower node);
  Next   22     output variables belong to MODELS (with "MODELS" an internally-added upper name of pair).
   Step      Time      LN1A       LN1B       LN1C       COMPA      COMPB      COMPC      SB1A       SB1B       SB1C       SE2A
 

                       SE2B       SE2C       VFF2A      VFF2B      VFF2C      IFUENA     IFUENB     IFUENC     VFF2A      VFF2B
                                                                                                               VFF2B      VFF2C

                       VFF2C      LN1A       LN1B       LN1C       SB1A       SB1B       SB1C       VFUENA     VFUENB     VFUENC
                       VFF2A      LN1B       LN1C       LN1A       SB1B       SB1C       SB1A       IFUENA     IFUENB     IFUENC

                       COMPA      COMPB      COMPC      MODELS     MODELS     MODELS     MODELS     MODELS     MODELS     MODELS
                       RSNSHA     RSNSHB     RSNSHC     ANVOL      LONG       R0F        R1F        X0F        X1F        RDIVX

                       MODELS     MODELS     MODELS     MODELS     MODELS     MODELS     MODELS     MODELS     MODELS     MODELS
                       RINSER     CLOSE1     RPPOS      RPCERO     LPPOS      LPCERO     CPPOS      CPCERO     XP         CR

                       MODELS     MODELS     MODELS     MODELS     MODELS
                       SIMET      ENC1       ENC2       ENC1AS     ENC2AS
 ***      Phasor I(0) =  1.5178458E-06                     Switch  "LN1A  "  to  "COMPA "  closed in the steady-state.
 ***      Phasor I(0) = -6.4920652E-06                     Switch  "LN1B  "  to  "COMPB "  closed in the steady-state.
 ***      Phasor I(0) =  5.8424364E-06                     Switch  "LN1C  "  to  "COMPC "  closed in the steady-state.
 ***      Phasor I(0) =  1.3225963E-06                     Switch  "VFF2A "  to  "RSNNHA"  closed in the steady-state.
 ***      Phasor I(0) = -6.2692316E-06                     Switch  "VFF2B "  to  "RSNNHB"  closed in the steady-state.
 ***      Phasor I(0) =  4.9466353E-06                     Switch  "VFF2C "  to  "RSNNHC"  closed in the steady-state.
 ***      Phasor I(0) =  4.2655863E-01                     Switch  "VFUENA"  to  "IFUENA"  closed in the steady-state.
 ***      Phasor I(0) = -1.0292774E-01                     Switch  "VFUENB"  to  "IFUENB"  closed in the steady-state.
 ***      Phasor I(0) = -3.2363090E-01                     Switch  "VFUENC"  to  "IFUENC"  closed in the steady-state.
 ***      Phasor I(0) =  1.5178458E-06                     Switch  "COMPA "  to  "RSNSHA"  closed in the steady-state.
 ***      Phasor I(0) = -6.4920652E-06                     Switch  "COMPB "  to  "RSNSHB"  closed in the steady-state.
 ***      Phasor I(0) =  5.8424364E-06                     Switch  "COMPC "  to  "RSNSHC"  closed in the steady-state.
      0       0.0  1322.46572 -6267.9639  4945.4982 1322.46572 -6267.9639  4945.4982 428660.787 -214332.81 -214327.97        0.0
                          0.0        0.0 1322.59624 -6269.2316 4946.63536 428660.705 -214330.35 -214330.35 7591.82783 -11215.867
                   3624.03912 7590.42965 -11213.462 3623.03247 642993.602 -4.8420205 -642988.76 .426558635 -.10292774  -.3236309
                   .151785E-5 -.64921E-5 .584244E-5        0.0   22.88553   1.260689   1.620437   4.722153   6.069659    .266973
                         360.    .050759    .030166    .246601    .278975   1.278846     .00914    .007626   23410.77   468.2153
                          1.0        0.0        0.0        0.0        0.0
    500     .5E-3  2318.95532 -6518.0178 4199.06245 2318.95532 -6518.0178 4199.06245 423383.698  -153620.9  -269762.8        0.0
                          0.0        0.0 2319.30184  -6519.361 4200.05917  423383.18 -153618.26 -269764.92 8838.66285  -10719.42
                   1880.75732 8836.97309  -10717.08 1880.10713 577004.594 116141.905  -693146.5  .40137102 -.03390425 -.36746677
                   .262127E-5 -.67157E-5 .454928E-5        0.0   22.88553   1.260689   1.620437   4.722153   6.069659    .266973
                         360.    .050759    .030166    .246601    .278975   1.278846     .00914    .007626   23410.77   468.2153
                          1.0        0.0        0.0        0.0        0.0
   1000     .1E-2  3258.34516 -6607.5767 3349.23158 3258.34516 -6607.5767 3349.23158   407681.5 -89126.324 -318555.18        0.0
                          0.0        0.0 3258.89813 -6608.9619 3350.06378 407680.557 -89123.572 -318556.98 9867.86004 -9959.0257
                   91.1656468  9865.9219 -9956.8083 90.8864155 496807.824 229428.852 -726236.68 .366303853 .035952307 -.40225616
                   .333912E-5 -.71138E-5  .33204E-5        0.0   22.88553   1.260689   1.620437   4.722153   6.069659    .266973
                         360.    .050759    .030166    .246601    .278975   1.278846     .00914    .007626   23410.77   468.2153
                          1.0        0.0        0.0        0.0        0.0
   1500     .0015  4117.50332 -6534.4351 2416.93177 4117.50332 -6534.4351 2416.93177 381940.827 -22437.164 -359503.66        0.0
                          0.0        0.0 4118.24998 -6535.8284 2417.57846 381939.485 -22434.368 -359505.12 10654.0784 -8953.4069
                   -1700.6715 10651.9384 -8951.3669 -1700.5716 404377.991 337066.499 -741444.49 .322215961 .104924147 -.42714011
                   .452254E-5 -.67472E-5 .267918E-5        0.0   22.88553   1.260689   1.620437   4.722153   6.069659    .266973
                         360.    .050759    .030166    .246601    .278975   1.278846     .00914    .007626   23410.77   468.2153
                          1.0        0.0        0.0        0.0        0.0
   2000      .002  4875.27504  -6300.394 1425.11895 4875.27504  -6300.394 1425.11895 346795.505 44804.4731 -391599.98        0.0
                          0.0        0.0  4876.1966 -6301.7611 1425.56449 346793.795 44807.2448 -391601.04 11177.9577 -7727.3256
                   -3450.6321  11175.669 -7725.5129 -3450.1561 301991.032 436404.451 -738395.48 .270194251 .171312308 -.44150656
                   .487752E-5 -.65737E-5  .14687E-5        0.0   22.88553   1.260689   1.620437   4.722153   6.069659    .266973
                         360.    .050759    .030166    .246601    .278975   1.278846     .00914    .007626   23410.77   468.2153
                          1.0        0.0        0.0        0.0        0.0
   2500     .0025  5513.00102 -5911.2161 398.215123 5513.00102 -5911.2161 398.215123 303110.927 110942.875  -414053.8        0.0
                          0.0        0.0 5514.07502 -5912.5234 398.448405 303108.891 110945.554 -414054.45 11426.5985 -6310.9718
                   -5115.6266 11424.2172 -6309.4313 -5114.7859 192168.052 524996.677 -717164.73 .211519488 .233482175 -.44500166
                   .614073E-5 -.63061E-5 .393018E-6        0.0   22.88553   1.260689   1.620437   4.722153   6.069659    .266973
                         360.    .050759    .030166    .246601    .278975   1.278846     .00914    .007626   23410.77   468.2153
                          1.0        0.0        0.0        0.0        0.0
   3000      .003  6014.97865 -5376.4845 -638.49412 6014.97865 -5376.4845 -638.49412 251962.751 174349.496 -426312.25        0.0
                          0.0        0.0 6016.17865 -5377.6999 -638.47876 251960.441 174352.016 -426312.46 11393.8785 -4739.2211
                   -6654.6574 11391.4632 -4737.9904 -6653.4728 77613.2549 600661.742   -678275.  .14763636 .289902964 -.43753932
                   .672034E-5 -.58072E-5 -.68545E-6        0.0   22.88553   1.260689   1.620437   4.722153   6.069659    .266973
                         360.    .050759    .030166    .246601    .278975   1.278846     .00914    .007626   23410.77   468.2153
                          1.0        0.0        0.0        0.0        0.0
   3500     .0035  6368.84767 -4709.3661 -1659.4816 6368.84767 -4709.3661 -1659.4816 194610.416 233463.053 -428073.47        0.0
                          0.0        0.0 6370.14409 -4710.4595 -1659.6846 194607.888 233465.353 -428073.24 11080.6036  -3050.775
                   -8029.8286 11078.2138 -3049.8846 -8028.3292 -38852.637 661536.522 -622683.88 .080117895 .339185401  -.4193033
                    .62757E-5 -.52772E-5 -.16806E-5        0.0   22.88553   1.260689   1.620437   4.722153   6.069659    .266973
                         360.    .050759    .030166    .246601    .278975   1.278846     .00914    .007626   23410.77   468.2153
                          1.0        0.0        0.0        0.0        0.0
   4000      .004  6565.89453 -3926.2875  -2639.607 6565.89453 -3926.2875  -2639.607 132466.127 286827.975  -419294.1        0.0
                          0.0        0.0  6567.2554  -3927.232 -2640.0234 132463.443 286829.997 -419293.44 10494.4874 -1287.2086
                   -9207.2788  10492.182 -1286.6805 -9205.5016 -154361.85 706122.077 -551760.23 .010626756 .380115916 -.39074267
                   .723207E-5 -.42297E-5 -.25479E-5        0.0   22.88553   1.260689   1.620437   4.722153   6.069659    .266973
                         360.    .050759    .030166    .246601    .278975   1.278846     .00914    .007626   23410.77   468.2153
                          1.0        0.0        0.0        0.0        0.0
   4500     .0045  6601.26716 -3046.5306 -3554.7366 6601.26716 -3046.5306 -3554.7366 67060.0821  333130.24 -400190.32        0.0
                          0.0        0.0 6602.65888 -3047.3029  -3555.356 67057.3081 333131.936 -400189.24 9649.96178 508.053081
                   -10158.015 9647.79776 508.205956 -10156.004 -266070.16 733320.563  -467250.4 -.05912607 .411686731 -.35256066
                    .65798E-5 -.32619E-5 -.37726E-5        0.0   22.88553   1.260689   1.620437   4.722153   6.069659    .266973
                         360.    .050759    .030166    .246601    .278975   1.278846     .00914    .007626   23410.77   468.2153
                          1.0        0.0        0.0        0.0        0.0
   5000      .005  6474.09458 -2091.7579 -4382.3366 6474.09458 -2091.7579 -4382.3366 2.79571368 371229.733 -371232.53        0.0
                          0.0        0.0 6475.48301 -2092.3391 -4383.1439 -.45661E-7  371231.06 -371231.06  8567.8221 2290.80483
                   -10858.627 8565.85252  2290.5787 -10856.431 -371226.94 742462.263 -371235.32 -.12742304 .433120464 -.30569742
                   .712697E-5  -.2351E-5 -.43213E-5        0.0   22.88553   1.260689   1.620437   4.722153   6.069659    .266973
                         360.    .050759    .030166    .246601    .278975   1.278846     .00914    .007626   23410.77   468.2153
                          1.0        0.0        0.0        0.0        0.0
   5500     .0055  6187.50847 -1085.4793 -5102.0291 6187.50847 -1085.4793 -5102.0291  -67054.56 400188.319 -333133.76        0.0
                          0.0        0.0 6188.85931  -1085.855 -5103.0043 -67057.308 400189.244 -333131.94 7274.71433 4017.14927
                   -11291.864 7272.98779 4016.54982 -11289.538 -467242.88 733322.078  -266079.2 -.19258243  .44388933  -.2513069
                   .692398E-5 -.11392E-5 -.55577E-5        0.0   22.88553   1.260689   1.620437   4.722153   6.069659    .266973
                         360.    .050759    .030166    .246601    .278975   1.278846     .00914    .007626   23410.77   468.2153
                          1.0        0.0        0.0        0.0        0.0
   6000      .006  5748.56527 -52.472574 -5696.0927 5748.56527 -52.472574 -5696.0927 -132460.81 419292.939 -286832.13        0.0
                          0.0        0.0  5749.8455 -52.633648 -5697.2118 -132463.44  419293.44   -286830. 5802.47914  5644.5782
                   -11447.057 5801.03785 5643.62013 -11444.658 -551753.75 706125.069 -154371.32  -.2529998  .44372817 -.19072837
                   .579452E-5 -.54977E-7   -.596E-5        0.0   22.88553   1.260689   1.620437   4.722153   6.069659    .266973
                         360.    .050759    .030166    .246601    .278975   1.278846     .00914    .007626   23410.77   468.2153
                          1.0        0.0        0.0        0.0        0.0
   6500     .0065  5168.07335 981.826214 -6149.8996 5168.07335 981.826214 -6149.8996 -194605.43 428073.176 -233467.74        0.0
                          0.0        0.0 5169.25118 981.883854  -6151.135 -194607.89  428073.24 -233465.35 4187.36733 7133.01889
                   -11320.386 4186.24714 7131.72578 -11317.973 -622678.61 661540.918 -38862.308 -.30718745 .432640932 -.12545348
                   .503352E-5 .103378E-5 -.62943E-5        0.0   22.88553   1.260689   1.620437   4.722153   6.069659    .266973
                         360.    .050759    .030166    .246601    .278975   1.278846     .00914    .007626   23410.77   468.2153
                          1.0        0.0        0.0        0.0        0.0
   7000      .007  4460.32618  1991.9492 -6452.2754 4460.32618  1991.9492 -6452.2754 -251958.23 426312.831  -174354.6        0.0
                          0.0        0.0 4461.37279 1992.22412 -6453.5969 -251960.44 426312.457 -174352.02 2469.14866 8445.82103
                    -10914.97 2468.37697 8444.22458 -10912.602 -678271.06 600667.434 77603.6239 -.35381113 .410900646 -.05708951
                   .484208E-5   .2047E-5 -.66613E-5        0.0   22.88553   1.260689   1.620437   4.722153   6.069659    .266973
                         360.    .050759    .030166    .246601    .278975   1.278846     .00914    .007626   23410.77   468.2153
                          1.0        0.0        0.0        0.0        0.0
   7500     .0075  3642.75105 2953.02378 -6595.7748 3642.75105 2953.02378 -6595.7748 -303106.97 414055.249 -110948.28        0.0
                          0.0        0.0 3643.64049 2953.50925 -6597.1497 -303108.89 414054.446 -110945.55 690.131247 9550.65899
                    -10240.79 689.727269 9548.79861 -10238.526 -717162.22 525003.525 192158.697 -.39172284 .379042639 .012680205
                   .395617E-5 .328839E-5 -.72443E-5        0.0   22.88553   1.260689   1.620437   4.722153   6.069659    .266973
                         360.    .050759    .030166    .246601    .278975   1.278846     .00914    .007626   23410.77   468.2153
                          1.0        0.0        0.0        0.0        0.0
   8000      .008  2735.47931 3841.38511 -6576.8644 2735.47931 3841.38511 -6576.8644 -346792.22 391602.252 -44810.034        0.0
                          0.0        0.0 2736.18981 3842.06909 -6578.2589  -346793.8  391601.04 -44807.245 -1105.8793  10420.328
                   -9314.4487 -1105.9058 10418.2495 -9312.3437 -738394.47 436412.286 301982.185 -.41998901 .337851332 .082137681
                   .293791E-5  .39267E-5 -.68648E-5        0.0   22.88553   1.260689   1.620437   4.722153   6.069659    .266973
                         360.    .050759    .030166    .246601    .278975   1.278846     .00914    .007626   23410.77   468.2153
                          1.0        0.0        0.0        0.0        0.0
   8500     .0085    1760.851  4635.1588 -6396.0098   1760.851  4635.1588 -6396.0098 -381938.29 359506.708 22431.5806        0.0
                          0.0        0.0 1761.36505 4636.02443 -6397.3895 -381939.48 359505.117 22434.3679 -2874.6594 11033.4139
                   -8158.7545 -2874.3078 11031.1686 -8156.8608   -741445. 337075.128  404369.87 -.43791366    .288341 .149572656
                   .179256E-5 .468102E-5 -.67018E-5        0.0   22.88553   1.260689   1.620437   4.722153   6.069659    .266973
                         360.    .050759    .030166    .246601    .278975   1.278846     .00914    .007626   23410.77   468.2153
                          1.0        0.0        0.0        0.0        0.0
   9000      .009  742.864583 5314.79954 -6057.6641 742.864583 5314.79954 -6057.6641 -407679.77 318558.917 89120.8547        0.0
                          0.0        0.0 743.169494 5315.82554  -6058.995 -407680.56 318556.985  89123.572  -4572.656 11374.8206
                   -6802.1645  -4571.935 11372.4637 -6800.5287 -726238.69 229438.062 496800.626  -.4450554 .231730751 .213324648
                   .748336E-6 .598997E-5 -.60569E-5        0.0   22.88553   1.260689   1.620437   4.722153   6.069659    .266973
                         360.    .050759    .030166    .246601    .278975   1.278846     .00914    .007626   23410.77   468.2153
                          1.0        0.0        0.0        0.0        0.0
   9500     .0095  -293.41366 5863.57226 -5570.1586 -293.41366 5863.57226 -5570.1586 -423382.82 269767.147 153615.678        0.0
                          0.0        0.0 -293.32531 5864.73338 -5571.4081 -423383.18 269764.922 153618.258 -6158.0587 11436.1415
                   -5278.0828 -6156.9859 11433.7309 -5276.7449 -693149.97 116151.469 576998.502 -.44123843 .169414533 .271823894
                   -.31135E-6 .613012E-5 -.58189E-5        0.0   22.88553   1.260689   1.620437   4.722153   6.069659    .266973
                         360.    .050759    .030166    .246601    .278975   1.278846     .00914    .007626   23410.77   468.2153
                          1.0        0.0        0.0        0.0        0.0
  10000       .01   -1322.467 6267.96432 -4945.4974  -1322.467 6267.96432 -4945.4974 -428660.79 214332.815 214327.973        0.0
                          0.0        0.0 -1322.5975 6269.23204 -4946.6345 -428660.71 214330.353 214330.352 -7591.8296 11215.8666
                    -3624.037 -7590.4313 11213.4617 -3623.0304  -642993.6 4.84199737  642988.76 -.42655671 .102926774 .323629935
                   -.14115E-5 .655785E-5 -.56014E-5        0.0   22.88553   1.260689   1.620437   4.722153   6.069659    .266973
                         360.    .050759    .030166    .246601    .278975   1.278846     .00914    .007626   23410.77   468.2153
                          1.0        0.0        0.0        0.0        0.0
  10500     .0105  -2318.9569 6518.01836 -4199.0615 -2318.9569 6518.01836 -4199.0615  -423383.7 153620.897 269762.802        0.0
                          0.0        0.0 -2319.3029 6519.36136 -4200.0584 -423383.18 153618.258 269764.922 -8838.6643 10719.4198
                   -1880.7555 -8836.9752 10717.0799 -1880.1046  -577004.6  -116141.9 693146.501 -.40137173 .033904608 .367467127
                   -.25848E-5 .647036E-5 -.47947E-5        0.0   22.88553   1.260689   1.620437   4.722153   6.069659    .266973
                         360.    .050759    .030166    .246601    .278975   1.278846     .00914    .007626   23410.77   468.2153
                          1.0        0.0        0.0        0.0        0.0
  11000      .011  -3258.3462 6607.57712 -3349.2309 -3258.3462 6607.57712 -3349.2309  -407681.5 89126.3235 318555.175        0.0
                          0.0        0.0 -3258.8995 6608.96237 -3350.0629 -407680.56  89123.572 318556.985 -9867.8618 9959.02527
                   -91.163433 -9865.9234   9956.808  -90.88465 -496807.82 -229428.85 726236.674 -.36630364 -.03595241  .40225605
                    -.3473E-5 .717898E-5 -.37062E-5        0.0   22.88553   1.260689   1.620437   4.722153   6.069659    .266973
                         360.    .050759    .030166    .246601    .278975   1.278846     .00914    .007626   23410.77   468.2153
                          1.0        0.0        0.0        0.0        0.0
  11500     .0115  -4117.5045 6534.43548  -2416.931 -4117.5045 6534.43548  -2416.931 -381940.83 22437.1639 359503.663        0.0
                          0.0        0.0 -4118.2511 6535.82881 -2417.5777 -381939.48 22434.3679 359505.117  -10654.08 8953.40652
                   1700.67339  -10651.94 8951.36647 1700.57352 -404377.99  -337066.5 741444.491 -.32221594 -.10492416   .4271401
                   -.45123E-5 .674231E-5 -.26848E-5        0.0   22.88553   1.260689   1.620437   4.722153   6.069659    .266973
                         360.    .050759    .030166    .246601    .278975   1.278846     .00914    .007626   23410.77   468.2153
                          1.0        0.0        0.0        0.0        0.0
  12000      .012  -4875.2761 6300.39433 -1425.1182 -4875.2761 6300.39433 -1425.1182  -346795.5 -44804.473 391599.978        0.0
                          0.0        0.0 -4876.1978  6301.7615 -1425.5637  -346793.8 -44807.245  391601.04 -11177.959 7727.32521
                   3450.63408  -11175.67 7725.51257 3450.15785 -301991.03 -436404.45 738395.483 -.27019424 -.17131231 .441506554
                   -.48892E-5 .657945E-5 -.14632E-5        0.0   22.88553   1.260689   1.620437   4.722153   6.069659    .266973
                         360.    .050759    .030166    .246601    .278975   1.278846     .00914    .007626   23410.77   468.2153
                          1.0        0.0        0.0        0.0        0.0
  12500     .0125  -5513.0022 5911.21651 -398.21435 -5513.0022 5911.21651 -398.21435 -303110.93 -110942.88 414053.802        0.0
                          0.0        0.0 -5514.0762 5912.52386 -398.44766 -303108.89 -110945.55 414054.446   -11426.6 6310.97151
                   5115.62854 -11424.219 6309.43085 5114.78781 -192168.05 -524996.68 717164.728 -.21151945 -.23348219 .445001644
                   -.61621E-5 .631661E-5 -.43854E-6        0.0   22.88553   1.260689   1.620437   4.722153   6.069659    .266973
                         360.    .050759    .030166    .246601    .278975   1.278846     .00914    .007626   23410.77   468.2153
                          1.0        0.0        0.0        0.0        0.0
  13000      .013  -6014.9799 5376.48495 638.494914 -6014.9799 5376.48495 638.494914 -251962.75  -174349.5 426312.246        0.0
                          0.0        0.0 -6016.1798 5377.70029 638.479538 -251960.44 -174352.02 426312.457  -11393.88 4739.22075
                   6654.65937 -11391.465 4737.99004 6653.47478 -77613.255 -600661.74 678274.997 -.14763635 -.28990297 .437539318
                   -.67224E-5 .580852E-5 .686734E-6        0.0   22.88553   1.260689   1.620437   4.722153   6.069659    .266973
                         360.    .050759    .030166    .246601    .278975   1.278846     .00914    .007626   23410.77   468.2153
                          1.0        0.0        0.0        0.0        0.0
  13500     .0135  -6368.8488 4709.36652  1659.4823 -6368.8488 4709.36652  1659.4823 -194610.42 -233463.05 428073.469        0.0
                          0.0        0.0 -6370.1452  4710.4599  1659.6853 -194607.89 -233465.35  428073.24 -11080.605  3050.7746
                   8029.83051 -11078.215 3049.88422 8028.33112 38852.6371 -661536.52 622683.885 -.08011793 -.33918538  .41930331
                   -.62555E-5 .526526E-5 .167254E-5        0.0   22.88553   1.260689   1.620437   4.722153   6.069659    .266973
                         360.    .050759    .030166    .246601    .278975   1.278846     .00914    .007626   23410.77   468.2153
                          1.0        0.0        0.0        0.0        0.0
  14000      .014  -6565.8956 3926.28787 2639.60776 -6565.8956 3926.28787 2639.60776 -132466.13 -286827.98 419294.102        0.0
                          0.0        0.0 -6567.2564 3927.23233  2640.0241 -132463.44   -286830.  419293.44 -10494.489 1287.20823
                   9207.28052 -10492.184 1286.68011  9205.5034 154361.848 -706122.08 551760.228 -.01062676 -.38011591 .390742677
                   -.72321E-5 .423122E-5   .2546E-5        0.0   22.88553   1.260689   1.620437   4.722153   6.069659    .266973
                         360.    .050759    .030166    .246601    .278975   1.278846     .00914    .007626   23410.77   468.2153
                          1.0        0.0        0.0        0.0        0.0
  14500     .0145  -6601.2683 3046.53098  3554.7373 -6601.2683 3046.53098  3554.7373 -67060.082 -333130.24 400190.322        0.0
                          0.0        0.0 -6602.6601 3047.30332 3555.35677 -67057.308 -333131.94 400189.244 -9649.9634 -508.05345
                   10158.0169 -9647.7993 -508.20632 10156.0056 266070.158 -733320.56 467250.404 .059126068 -.41168673 .352560662
                   -.65944E-5 .326891E-5 .378024E-5        0.0   22.88553   1.260689   1.620437   4.722153   6.069659    .266973
                         360.    .050759    .030166    .246601    .278975   1.278846     .00914    .007626   23410.77   468.2153
                          1.0        0.0        0.0        0.0        0.0
  % % % % % %   Suspended simulation;  plot data space exhausted;  SPY SPACE is required.   LIMBUF =  840000.
  % % % % % %   Suspended simulation;  plot data space exhausted;  SPY SPACE is required.   LIMBUF =  840000.
  +++  Time-sharing disabled.   Send  user-keyed interrupt to silence alarm.
   Current values.  INDBUF  INDBEG  LIMBUF  MFLUSH  NUMDCD  KCARD1  KCARD2
                    839994      50  840000    1000     230       1     231
Plot timespan now in memory (in sec) = 0.00000000E+00   1.49990000E-02
   ++++  Begin plot-data copy from memory to disk.   MFLUSH, INDBUF, N4, Tbeg,  Tend = 1001  839994       1  -1.00000E+00
1.00000E+19
  15000      .015  -6474.0958 2091.75836 4382.33746 -6474.0958 2091.75836 4382.33746 -2.7955209 -371229.73 371232.529        0.0
                          0.0        0.0 -6475.4842 2092.33953 4383.14468 -.61533E-6 -371231.06  371231.06 -8567.8237 -2290.8051
                   10858.6289 -8565.8542 -2290.5791 10856.4333 371226.938 -742462.26 371235.325 .127423026 -.43312046  .30569743
                   -.71249E-5 .235111E-5 .431947E-5        0.0   22.88553   1.260689   1.620437   4.722153   6.069659    .266973
                         360.    .050759    .030166    .246601    .278975   1.278846     .00914    .007626   23410.77   468.2153
                          1.0        0.0        0.0        0.0        0.0
  15500     .0155  -6187.5096  1085.4797  5102.0299 -6187.5096  1085.4797  5102.0299 67054.5598 -400188.32 333133.759        0.0
                          0.0        0.0 -6188.8606 1085.85546 5103.00509 67057.3081 -400189.24 333131.936  -7274.716 -4017.1496
                   11291.8656 -7272.9893 -4016.5502 11289.5395 467242.879 -733322.08 266079.199 .192582409 -.44388932 .251306911
                   -.69041E-5 .112792E-5 .554882E-5        0.0   22.88553   1.260689   1.620437   4.722153   6.069659    .266973
                         360.    .050759    .030166    .246601    .278975   1.278846     .00914    .007626   23410.77   468.2153
                          1.0        0.0        0.0        0.0        0.0
  16000      .016  -5748.5665 52.4730026 5696.09349 -5748.5665 52.4730026 5696.09349 132460.809 -419292.94  286832.13        0.0
                          0.0        0.0 -5749.8466 52.6340306 5697.21259 132463.443 -419293.44 286829.997 -5802.4807 -5644.5786
                   11447.0592 -5801.0395 -5643.6205   11444.66 551753.749 -706125.07 154371.321 .252999779 -.44372816 .190728378
                   -.57839E-5 .553478E-7 .595627E-5        0.0   22.88553   1.260689   1.620437   4.722153   6.069659    .266973
                         360.    .050759    .030166    .246601    .278975   1.278846     .00914    .007626   23410.77   468.2153
                          1.0        0.0        0.0        0.0        0.0
  16500     .0165  -5168.0745 -981.82579  6149.9003 -5168.0745 -981.82579  6149.9003 194605.434 -428073.18 233467.742        0.0
                          0.0        0.0 -5169.2524 -981.88346 6151.13584 194607.888 -428073.24 233465.353 -4187.3689 -7133.0193
                   11320.3882 -4186.2487 -7131.7261 11317.9748  622678.61 -661540.92 38862.3078  .30718744 -.43264093 .125453488
                   -.50369E-5 -.10314E-5 .629574E-5        0.0   22.88553   1.260689   1.620437   4.722153   6.069659    .266973
                         360.    .050759    .030166    .246601    .278975   1.278846     .00914    .007626   23410.77   468.2153
                          1.0        0.0        0.0        0.0        0.0
  17000      .017  -4460.3274 -1991.9488 6452.27619 -4460.3274 -1991.9488 6452.27619 251958.227 -426312.83 174354.603        0.0
                          0.0        0.0  -4461.374 -1992.2237  6453.5977 251960.441 -426312.46 174352.016 -2469.1503 -8445.8214
                   10914.9717 -2468.3787 -8444.2249 10912.6036 678271.058 -600667.43 -77603.624 .353811131 -.41090065 .057089514
                   -.48544E-5  -.2041E-5  .66678E-5        0.0   22.88553   1.260689   1.620437   4.722153   6.069659    .266973
                         360.    .050759    .030166    .246601    .278975   1.278846     .00914    .007626   23410.77   468.2153
                          1.0        0.0        0.0        0.0        0.0
  17500     .0175  -3642.7523 -2953.0233 6595.77564 -3642.7523 -2953.0233 6595.77564 303106.973 -414055.25 110948.276        0.0
                          0.0        0.0 -3643.6418 -2953.5088 6597.15055 303108.891 -414054.45 110945.554   -690.133 -9550.6593
                   10240.7923 -689.72897  -9548.799 10238.5279 717162.221 -525003.52  -192158.7 .391722822 -.37904263 -.01268019
                   -.39443E-5 -.32932E-5 .723731E-5        0.0   22.88553   1.260689   1.620437   4.722153   6.069659    .266973
                         360.    .050759    .030166    .246601    .278975   1.278846     .00914    .007626   23410.77   468.2153
                          1.0        0.0        0.0        0.0        0.0
  18000      .018  -2735.4805 -3841.3847 6576.86521 -2735.4805 -3841.3847 6576.86521 346792.218 -391602.25 44810.0336        0.0
                          0.0        0.0  -2736.191 -3842.0687 6578.25968 346793.795 -391601.04 44807.2448 1105.87762 -10420.328
                   9314.45071 1105.90421  -10418.25 9312.34571 738394.471 -436412.29 -301982.18 .419989005 -.33785133 -.08213768
                   -.29349E-5 -.39296E-5 .686478E-5        0.0   22.88553   1.260689   1.620437   4.722153   6.069659    .266973
                         360.    .050759    .030166    .246601    .278975   1.278846     .00914    .007626   23410.77   468.2153
                          1.0        0.0        0.0        0.0        0.0
  18500     .0185  -1760.8522 -4635.1584 6396.01058 -1760.8522 -4635.1584 6396.01058 381938.289 -359506.71 -22431.581        0.0
                          0.0        0.0 -1761.3662  -4636.024 6397.39024 381939.485 -359505.12 -22434.368  2874.6578 -11033.414
                   8158.75645 2874.30618 -11031.169 8156.86279 741444.997 -337075.13 -404369.87 .437913652   -.288341 -.14957265
                   -.17872E-5 -.46847E-5   .6699E-5        0.0   22.88553   1.260689   1.620437   4.722153   6.069659    .266973
                         360.    .050759    .030166    .246601    .278975   1.278846     .00914    .007626   23410.77   468.2153
                          1.0        0.0        0.0        0.0        0.0
  19000      .019  -742.86579 -5314.7991 6057.66489 -742.86579 -5314.7991 6057.66489 407679.771 -318558.92 -89120.855        0.0
                          0.0        0.0 -743.17075 -5315.8251 6058.99585 407680.557 -318556.98 -89123.572 4572.65436 -11374.821
                    6802.1666 4571.93331 -11372.464 6800.53068 726238.688 -229438.06 -496800.63 .445055413 -.23173076 -.21332466
                   -.76302E-6 -.59836E-5 .606477E-5        0.0   22.88553   1.260689   1.620437   4.722153   6.069659    .266973
                         360.    .050759    .030166    .246601    .278975   1.278846     .00914    .007626   23410.77   468.2153
                          1.0        0.0        0.0        0.0        0.0
  19500     .0195  293.412402 -5863.5718  5570.1594 293.412402 -5863.5718  5570.1594 423382.824 -269767.15 -153615.68        0.0
                          0.0        0.0 293.324125  -5864.733 5571.40885  423383.18 -269764.92 -153618.26  6158.0571 -11436.142
                   5278.08473 6156.98421 -11433.731   5276.747 693149.971 -116151.47  -576998.5 .441238434 -.16941454  -.2718239
                   .307102E-6 -.61277E-5  .58203E-5        0.0   22.88553   1.260689   1.620437   4.722153   6.069659    .266973
                         360.    .050759    .030166    .246601    .278975   1.278846     .00914    .007626   23410.77   468.2153
                          1.0        0.0        0.0        0.0        0.0
  20000       .02  1322.46578 -6267.9639 4945.49812 1322.46578 -6267.9639 4945.49812 428660.787 -214332.81 -214327.97        0.0
                          0.0        0.0 1322.59627 -6269.2316 4946.63533 428660.705 -214330.35 -214330.35 7591.82786 -11215.867
                   3624.03906 7590.42969 -11213.462 3623.03234 642993.602 -4.8420026 -642988.76 .426556704 -.10292677 -.32362993
                   .141742E-5 -.65608E-5 .559911E-5        0.0   22.88553   1.260689   1.620437   4.722153   6.069659    .266973
                         360.    .050759    .030166    .246601    .278975   1.278846     .00914    .007626   23410.77   468.2153
                          1.0        0.0        0.0        0.0        0.0
  20500     .0205  2318.95564 -6518.0179  4199.0623 2318.95564 -6518.0179  4199.0623 423383.699  -153620.9  -269762.8        0.0
                          0.0        0.0 2319.30176 -6519.3609 4200.05918  423383.18 -153618.26 -269764.92  8838.6627  -10719.42
                   1880.75742 8836.97359  -10717.08 1880.10666 577004.596 116141.904  -693146.5 .401371737 -.03390461 -.36746713
                   .258346E-5 -.64698E-5 .479538E-5        0.0   22.88553   1.260689   1.620437   4.722153   6.069659    .266973
                         360.    .050759    .030166    .246601    .278975   1.278846     .00914    .007626   23410.77   468.2153
                          1.0        0.0        0.0        0.0        0.0
  21000      .021  3258.34511 -6607.5767 3349.23163 3258.34511 -6607.5767 3349.23163 407681.499 -89126.324 -318555.18        0.0
                          0.0        0.0 3258.89829  -6608.962 3350.06367 407680.557 -89123.572 -318556.98 9867.86024 -9959.0256
                   91.1653762 9865.92186 -9956.8084 90.8865208 496807.822 229428.852 -726236.67 .366303651 .035952405 -.40225606
                    .34694E-5 -.71774E-5 .370806E-5        0.0   22.88553   1.260689   1.620437   4.722153   6.069659    .266973
[...]
                         360.    .050759    .030166    .246601    .278975   1.278846     .00914    .007626   23410.77   468.2153
                          1.0        0.0        0.0        0.0        0.0
 113000      .113  -253062.59  -174681.7 427744.285 -253062.59  -174681.7 427744.285 -253062.59  -174681.7 427744.285        0.0
                          0.0        0.0 -253387.09 -175203.01 428590.103 -251960.44 -174352.02 426312.457 -78184.075 -603793.12
                   681977.192 -78380.888 -602425.98 680806.872 -78380.888 -602425.98 680806.872 22.8620845 -25.837159 2.97507454
                   -.25806E-3 -.19175E-3 .449866E-3        0.0   22.88553   1.260689   1.620437   4.722153   6.069659    .266973
                         360.    .050759    .030166    .246601    .278975   1.278846     .00914    .007626   23410.77   468.2153
                          1.0        0.0        0.0        0.0        0.0
 113500     .1135  -194941.54  -233763.4 428704.943 -194941.54  -233763.4 428704.943 -194941.54  -233763.4 428704.943        0.0
                          0.0        0.0 -195873.52 -234317.32  430190.84 -194607.89 -233465.35  428073.24 38443.7922 -664508.16
                   626064.363 38821.8539 -662468.34 623646.488  38821.854 -662468.34 623646.488 25.8303644 -23.078174 -2.7521896
                   -.22133E-3 -.23475E-3 .426978E-3        0.0   22.88553   1.260689   1.620437   4.722153   6.069659    .266973
                         360.    .050759    .030166    .246601    .278975   1.278846     .00914    .007626   23410.77   468.2153
                          1.0        0.0        0.0        0.0        0.0
 114000      .114  -132448.42 -287174.61 419623.031 -132448.42 -287174.61 419623.031 -132448.42 -287174.61 419623.031        0.0
                          0.0        0.0 -132731.09 -287564.36 420295.456 -132463.44   -286830.  419293.44  154833.27 -707859.82
                    553026.55 154726.187 -706797.64 552071.453 154726.188 -706797.64 552071.453 28.2069279 -19.873792 -8.3331356
                   -.13126E-3 -.31166E-3 .472069E-3        0.0   22.88553   1.260689   1.620437   4.722153   6.069659    .266973
                         360.    .050759    .030166    .246601    .278975   1.278846     .00914    .007626   23410.77   468.2153
                          1.0        0.0        0.0        0.0        0.0
 114500     .1145  -67125.853 -333535.17 400661.025 -67125.853 -333535.17 400661.025 -67125.853 -333535.17 400661.025        0.0
                          0.0        0.0 -66892.981 -333462.32 400355.303 -67057.308 -333131.94 400189.244 266569.342 -733817.63
                   467248.283 266409.319  -734196.2 467786.878 266409.319  -734196.2 467786.878 29.8328356 -16.216449 -13.616386
                   -.67593E-4 -.35437E-3 .392795E-3        0.0   22.88553   1.260689   1.620437   4.722153   6.069659    .266973
                         360.    .050759    .030166    .246601    .278975   1.278846     .00914    .007626   23410.77   468.2153
                          1.0        0.0        0.0        0.0        0.0
 115000      .115  50.5825546 -371580.19 371529.606 50.5825546 -371580.19 371529.606 50.5826157 -371580.19 371529.606        0.0
                          0.0        0.0 274.098554 -371286.13 371012.029 .127058E-4 -371231.06  371231.06 371560.226 -742298.16
                    370737.93 371630.771 -743109.79 371479.023 371630.771 -743109.79 371479.023 30.6085364 -12.372334 -18.236203
                   .546155E-7 -.38845E-3 .376433E-3        0.0   22.88553   1.260689   1.620437   4.722153   6.069659    .266973
                         360.    .050759    .030166    .246601    .278975   1.278846     .00914    .007626   23410.77   468.2153
                          1.0        0.0        0.0        0.0        0.0
 115500     .1155  66903.2495 -400107.63 333204.379 66903.2495 -400107.63 333204.379 66903.2495 -400107.63 333204.379        0.0
                          0.0        0.0 67263.6485 -400145.16 332881.512 67057.3081 -400189.24 333131.936 467408.809 -733026.67
                   265617.863 467010.878 -733312.01  266301.13 467010.878 -733312.01  266301.13 29.8965321 -8.5198817  -21.37665
                    .74186E-4 -.40319E-3 .358045E-3        0.0   22.88553   1.260689   1.620437   4.722153   6.069659    .266973
                         360.    .050759    .030166    .246601    .278975   1.278846     .00914    .007626   23410.77   468.2153
                          1.0        0.0        0.0        0.0        0.0
 116000      .116  132704.614 -418943.69 286239.079 132704.614 -418943.69 286239.079 132704.614 -418943.69 286239.079        0.0
                          0.0        0.0 132450.217  -419067.3 286617.087 132463.443 -419293.44 286829.997  551517.52 -705684.39
                    154166.87 551648.307 -705182.77 153534.466 551648.307 -705182.77 153534.466  27.926923  -4.862536 -23.064387
                   .134164E-3  -.4696E-3 .306308E-3        0.0   22.88553   1.260689   1.620437   4.722153   6.069659    .266973
                         360.    .050759    .030166    .246601    .278975   1.278846     .00914    .007626   23410.77   468.2153
                          1.0        0.0        0.0        0.0        0.0
 116500     .1165  195158.734 -427659.87 232501.136 195158.734 -427659.87 232501.136 195158.734 -427659.87 232501.136        0.0
                          0.0        0.0 195261.365 -427759.52 232498.157 194607.888 -428073.24 233465.353 623020.888 -660257.68
                   37236.7924 622818.604 -660161.01 37342.4023 622818.604 -660161.01 37342.4022 25.1241288 -1.2678357 -23.856293
                   .218717E-3 -.46042E-3 .241712E-3        0.0   22.88553   1.260689   1.620437   4.722153   6.069659    .266973
                         360.    .050759    .030166    .246601    .278975   1.278846     .00914    .007626   23410.77   468.2153
                          1.0        0.0        0.0        0.0        0.0
 117000      .117  252572.711 -426071.65  173498.94 252572.711 -426071.65  173498.94 252572.711 -426071.65  173498.94        0.0
                          0.0        0.0 253092.019 -425836.94 172744.919 251960.441 -426312.46 174352.016 678928.958 -598581.86
                     -80347.1 678644.362 -599570.59 -79073.771 678644.362 -599570.59 -79073.771   21.92518 2.49201637 -24.417196
                   .263727E-3 -.41586E-3 .181228E-3        0.0   22.88553   1.260689   1.620437   4.722153   6.069659    .266973
                         360.    .050759    .030166    .246601    .278975   1.278846     .00914    .007626   23410.77   468.2153
                          1.0        0.0        0.0        0.0        0.0
 117500     .1175  303904.951 -414116.81 110211.861 303904.951 -414116.81 110211.861 303904.951 -414116.81 110211.861        0.0
                          0.0        0.0   304367.2 -413668.37 109301.167 303108.891 -414054.45 110945.554 718035.567 -522969.53
                   -195066.03 718021.764 -524328.67 -193693.09 718021.764 -524328.67 -193693.09 18.7793501 6.36409992  -25.14345
                    .36159E-3 -.41783E-3 .114404E-3        0.0   22.88553   1.260689   1.620437   4.722153   6.069659    .266973
                         360.    .050759    .030166    .246601    .278975   1.278846     .00914    .007626   23410.77   468.2153
                          1.0        0.0        0.0        0.0        0.0
 118000      .118  347160.241 -391680.46 44520.2195 347160.241 -391680.46 44520.2195 347160.241 -391680.46 44520.2194        0.0
                          0.0        0.0 347655.974 -391605.47 43949.4984 346793.795 -391601.04 44807.2447 739261.447 -435554.97
                   -303706.48 738840.701 -436200.68 -302640.02 738840.701 -436200.68 -302640.02 15.2649002 10.2617329 -25.526633
                   .343522E-3 -.40727E-3 .419356E-4        0.0   22.88553   1.260689   1.620437   4.722153   6.069659    .266973
                         360.    .050759    .030166    .246601    .278975   1.278846     .00914    .007626   23410.77   468.2153
                          1.0        0.0        0.0        0.0        0.0
 118500     .1185  382038.011 -359611.86 -22426.146 382038.011 -359611.86 -22426.146 382038.011 -359611.86 -22426.147        0.0
                          0.0        0.0 381732.059 -359837.35 -21894.705 381939.485 -359505.12 -22434.368 741569.414 -337942.65
                   -403626.76 741649.875 -337185.72 -404464.16 741649.875 -337185.72 -404464.16 11.3506196 13.9517778 -25.302398
                   .426899E-3 -.35774E-3 -.21892E-4        0.0   22.88553   1.260689   1.620437   4.722153   6.069659    .266973
                         360.    .050759    .030166    .246601    .278975   1.278846     .00914    .007626   23410.77   468.2153
                          1.0        0.0        0.0        0.0        0.0
 119000      .119  407434.348 -318724.86  -88709.49 407434.348 -318724.86  -88709.49 407434.348 -318724.86  -88709.49        0.0
                          0.0        0.0 407101.519 -319166.99 -87934.529 407680.557 -318556.98 -89123.572 726268.509 -231232.46
                   -495036.05 726159.205 -230015.37 -496143.84 726159.205 -230015.37 -496143.84 7.16814787 17.4276058 -24.595754
                   .406332E-3 -.35107E-3 -.98906E-4        0.0   22.88553   1.260689   1.620437   4.722153   6.069659    .266973
                         360.    .050759    .030166    .246601    .278975   1.278846     .00914    .007626   23410.77   468.2153
                          1.0        0.0        0.0        0.0        0.0
 119500     .1195  422834.136 -270093.48 -152740.65 422834.136 -270093.48 -152740.65 422834.136 -270093.48 -152740.65        0.0
                          0.0        0.0 422793.416 -270349.17 -152444.25  423383.18 -269764.92 -153618.26 693142.586 -117904.92
                   -575237.66 692927.621 -117352.83 -575574.79 692927.621 -117352.83 -575574.79 2.99120668 20.8101977 -23.801405
                   .440889E-3 -.29986E-3 -.17011E-3        0.0   22.88553   1.260689   1.620437   4.722153   6.069659    .266973
                         360.    .050759    .030166    .246601    .278975   1.278846     .00914    .007626   23410.77   468.2153
                          1.0        0.0        0.0        0.0        0.0
  % % % % % %   Suspended simulation;  plot data space exhausted;  SPY SPACE is required.   LIMBUF =  840000.
  % % % % % %   Suspended simulation;  plot data space exhausted;  SPY SPACE is required.   LIMBUF =  840000.
  +++  Time-sharing disabled.   Send  user-keyed interrupt to silence alarm.
   Current values.  INDBUF  INDBEG  LIMBUF  MFLUSH  NUMDCD  KCARD1  KCARD2
                    839994      50  840000    1007     230       1     231
Plot timespan now in memory (in sec) = 1.04985997E-01   1.19985000E-01
   ++++  Begin plot-data copy from memory to disk.   MFLUSH, INDBUF, N4, Tbeg,  Tend = 1008  839994       1  -1.00000E+00
1.00000E+19
 120000       .12  428431.351 -214915.39 -213515.96 428431.351 -214915.39 -213515.96 428431.351 -214915.39 -213515.96        0.0
                          0.0        0.0 428437.075 -214859.61 -213577.46 428660.705 -214330.35 -214330.35 643296.687 -1282.1472
                   -642014.54 643346.738 -1399.4248 -641947.31 643346.738 -1399.4247 -641947.31 -.65931825 23.9614217 -23.302104
                   .466784E-3 -.21601E-3 -.22165E-3        0.0   22.88553   1.260689   1.620437   4.722153   6.069659    .266973
                         360.    .050759    .030166    .246601    .278975   1.278846     .00914    .007626   23410.77   468.2153
                          1.0        0.0        0.0        0.0        0.0

Extrema of output variables follow.   Order and column positioning are the same as for the preceding time-step loop output.
Variable maxima :  435342.012  431422.18 437672.708 435342.012  431422.18 437672.708 435342.012  431422.18 437967.897        0.0
                          0.0        0.0 437162.138 432614.427 437871.271 428660.705 428660.703 428660.703 747847.602 758424.016
                   921956.916 747437.608 752069.502 902930.667 747437.608 752069.502 961240.657 127.927341 149.994684 454.838484
                   .494509E-3 .493729E-3 .495374E-3        0.0   22.88553   1.260689   1.620437   4.722153   6.069659    .266973
                         360.    .050759    .030166    .246601    .278975   1.278846     .00914    .007626   23410.77   468.2153
                          1.0        0.0        0.0        0.0        0.0
Times of maxima :     .059888    .066463    .053406    .059888    .066463    .053406    .059888    .066463    .053406        0.0
                          0.0        0.0    .059918    .066492    .053471        0.0    .006667    .113333    .058456     .06505
                      .050989    .058391    .065021    .051046    .058391    .065021    .050921    .051086    .050859     .05089
                      .059985    .066447    .073613        0.0        0.0        0.0        0.0        0.0        0.0        0.0
                          0.0        0.0        0.0        0.0        0.0        0.0        0.0        0.0        0.0        0.0
                          0.0        0.0        0.0        0.0        0.0
Variable minima :  -512966.25  -430701.7 -436593.92 -512966.25  -430701.7 -436593.92 -550935.97  -430701.7 -436593.92        0.0
                          0.0        0.0 -528632.64 -431408.39 -439549.33 -428660.71  -428660.7  -428660.7 -745446.27  -751999.8
                   -763677.14 -745390.43 -749938.65  -757535.2 -745390.43 -749938.65  -757535.2 -602.44104 -63.528194 -64.434718
                    -.5602E-3  -.4939E-3 -.49949E-3        0.0   22.88553   1.260689   1.620437   4.722153   6.069659    .266973
                         360.    .050759    .030166    .246601    .278975   1.278846     .00914    .007626   23410.77   468.2153
                          1.0        0.0        0.0        0.0        0.0
Times of minima :     .051046    .076521    .063206    .051046    .076521    .063206    .050921    .076521    .063206        0.0
                          0.0        0.0    .050988    .076509    .063195        .01    .016667    .103333    .068382    .075143
                      .061735    .068447    .075092    .061799    .068447    .075092    .061799     .05089    .051084    .051086
                      .051042    .076878    .063134        0.0        0.0        0.0        0.0        0.0        0.0        0.0
                          0.0        0.0        0.0        0.0        0.0        0.0        0.0        0.0        0.0        0.0
                          0.0        0.0        0.0        0.0        0.0

Blank card terminating all plot cards.            |BLANK PLOT

Memory storage figures for the preceding, now-completed data case.  -------------------------------  Present   Program
A value of  "-9999"  indicates that no figure is available.         28-Feb-22  19:33:46              figure     limit  (name)
     Size List 1.   Number of electric network nodes.                                                   37      6000  (LBUS)
     Size List 2.   Number of electric network branches.                                                39     10000  (LBRNCH)
     Size List 3.   Number of data values in R, L, C tables.                                            45    192000  (LDATA)
     Size List 4.   Number of electric network sources.                                                  3       900  (LEXCT)
     Size List 5.   Storage for [Y] and triangularized [Y].   No. times =    3     Factors =    66     189    420000  (LYMAT)
     Size List 6.   Number of entries in switch table.                  No. flops = 18                  21      1200  (LSWTCH)
     Size List 7.   Number of distinct ALPHANUMERIC data names plus program SPY variables.              25     15000  (LSIZE7)
     Size List 8.   History points of distributed lines.                                               263    120000  (LPAST)
     Size List 9.   Number of nonlinear elements.                                                        0      2250  (LNONL)
     Size List 10.  Points of nonlinear characteristics.                                                 0      3800  (LCHAR)
     Size List 11.  Number of Type-59 S.M. outputs.                                                      0       720  (LSMOUT)
     Size List 12.  Total number of EMTP output variables.                                              55      2000  (LSIZ12)
     Size List 13.  Working space for batch/SPY plotting.                                            -9999     72800  (LSIZ13)
     Size List 14.  S.M./U.M. connections to TACS.                                                   -9999       510  (LBSTAC)
     Size List 15.  Character storage in bytes for MODELS.                                            3298     90000  (LCTACS)
     Size List 16.  Total number of Type-59 S.M. masses.                                                 0       800  (LIMASS)
     Size List 17.  Number of Type-59 Synchronous machines.                                              0        90  (LSYN)
     Size List 18.  Branch and switch power/energy outputs.                                              0       254  (MAXPE)
     Size List 19.  Total floating-point TACS table space.                                              23    120000  (LTACST)
     Size List 20.  Non-copied recursive convolution data.                                               0    100000  (LFSEM)
     Size List 21.  Total modal/phase [T] matrix storage.                                                9      3000  (LFD)
     Size List 22.  Total recursive convolution history.                                                 0     15000  (LHIST)
     Size List 23.  Giant vectors for renumbering, phasors;  also extrema accumulation.                  93    192000  (LSIZ23)
     Size List 24.  Peak phases of compensation for data.                                                0       120  (LCOMP)
     Size List 25.  Total table space for all U.M usage.                                             -9999     45000  (LSPCUM)
     Size List 26.  Square of max number of coupled phases.                                              9    260000  (LSIZ26)
     Size List 27.  Maximum number of MODELS top variables.                                             44       600  (LSIZ27)
     Size List 28.  MODELS.  Total work space is divided into INTEGER and REAL.  1st, REAL:           1780    210000  (LRTACS)
                             Second  and last,  statistics for INTEGER work space.                    6838         0  (LITACS)
     Size List 29.  RAM disk used by "TAPSAV" table saving (limit is "LABCOM" size LTLABL).          -9999       600  (LSIZ29)
     Size List 30.  Taku Noda frequency-dependent circuits.                                              0        19  (LSIZ30)
Timing figures characterizing central processor (CP) solution speed.  ----------------------------   CP sec  Wait sec  Real sec
     Data input time (through blank card ending branches) ....                                       0.016     0.000     0.016
     Node renumbering and phasor solution  ....                                                      0.016     0.000     0.016
     After phasor solution, but before time-step loop  ....                                          0.000     0.000     0.000
     Integration of equations (time-step loop)  ....                                                 1.047     0.000     1.047
     Plotting or STATISTICS termination overlays ....                                                0.016     0.000     0.016
                                                                                                    ---------------------------
                                                                                          Totals      1.094     0.000     1.094

