   ---   236   cards of disk file read into card cache cells  1   onward.
 Comment card is ignored.      |C   LBUS  LBRNCH   LDATA   LEXCT   LYMAT  LSWTCH
 Limit CIDEAL cards =   200    |CARDS        200 { Limit of CIDEAL will be 2 mor
 1st card (Lists  1-10).       |    6000   10000  192000     900  420000    120
 Comment card is ignored.      |C LSMOUT  LSIZ12  LSIZ13  LBSTAC  LCTACS  LIMASS
 2nd card (Lists 11-20).       |     720    2000   72800     510   90000     80
 Comment card is ignored.      |C    LFD   LHIST  LSIZ23   NCOMP  LSPCUM  LSIZ26
 3rd card (Lists 21-30).       |    3000   15000  192000     120   45000  26000
 4th card (Lists 31-32).       |     200     300     { Optional card for Lists
 Comment card is ignored.      |C  LWORK  LMARTI
 Supplemental offsets.         |  840000     742
 <===> Done with  "/"-card sorting by data class.    Remember that the source file appears different from interpreted input data.
Alternative Transients Program (ATP),  GNU Linux or DOS.  All rights reserved by Can/Am user group of Portland, Oregon, USA.
 Date (dd-mth-yy) and time of day (hh.mm.ss) = 28-Feb-22  20:58:07   Name of disk plot file is  p\bdfinalisima\energizacion4052.pl4
Consult the 860-page ATP Rule Book of the Can/Am EMTP User Group in Portland,  Oregon, USA.  Source code date is 12 August 2008.
Total size of LABCOM tables = 10913436 INTEGER words.  31 VARDIM  List Sizes follow:  6002  10K  192K  900  420K  1200  15K
  120K  2250  3800  720  2K  72800  510  90K  800  90  254  120K  100K  3K  15K  192K  120  45K  260K  600  210K  1100  60  200
--------------------------------------------------+--------------------------------------------------------------------------------
Descriptive interpretation of input data cards.   |  Input data card images are shown below, all 80 columns, character by character
                                                  0         1         2         3         4         5         6         7         8
                                                  012345678901234567890123456789012345678901234567890123456789012345678901234567890
--------------------------------------------------+--------------------------------------------------------------------------------
Comment card.   NUMDCD = 1.                       |C data:D:\ATP\BDFINALISIMA\ENERGIZACION4052.ATP
Marker card preceding new EMTP data case.         |BEGIN NEW DATA CASE
Comment card.   NUMDCD = 3.                       |C --------------------------------------------------------
Comment card.   NUMDCD = 4.                       |C Generated by ATPDRAW  febrero, lunes 28, 2022
Comment card.   NUMDCD = 5.                       |C A Bonneville Power Administration program
Comment card.   NUMDCD = 6.                       |C by H. K. Høidalen at SEfAS/NTNU - NORWAY 1994-2016
Comment card.   NUMDCD = 7.                       |C --------------------------------------------------------
Comment card.   NUMDCD = 8.                       |C  dT  >< Tmax >< Xopt >< Copt ><Epsiln>
Misc. data.     1.000E-06   1.200E-01   5.000E+01 |   1.E-6     .12     50.
Misc. data.    500    1  0  1  1  0  0  0  0  0   |     500       1       0       1       1       0       0       0       0
  ///  Warning.  Nonzero XOPT or COPT differs from the power frequency of  6.00000000E+01  Hz.   Did the user really want this?
No TACS data,  but MODELS data begins (next).     |MODELS
      Another ordinary MODELS data card.          |OUTPUT
      Another ordinary MODELS data card.          |  AnVol
      Another ordinary MODELS data card.          |  LONG
      Another ordinary MODELS data card.          |  R0F
      Another ordinary MODELS data card.          |  R1F
      Another ordinary MODELS data card.          |  X0F
      Another ordinary MODELS data card.          |  X1F
      Another ordinary MODELS data card.          |  RDIVX
      Another ordinary MODELS data card.          |  RINSER
      Another ordinary MODELS data card.          |  CLOSE1
      Another ordinary MODELS data card.          |  RPpos
      Another ordinary MODELS data card.          |  RPcero
      Another ordinary MODELS data card.          |  LPpos
      Another ordinary MODELS data card.          |  LPcero
      Another ordinary MODELS data card.          |  CPpos
      Another ordinary MODELS data card.          |  CPcero
      Another ordinary MODELS data card.          |  Xp
      Another ordinary MODELS data card.          |  CR
      Another ordinary MODELS data card.          |  SIMET
      Another ordinary MODELS data card.          |  ENC1
      Another ordinary MODELS data card.          |  ENC2
      Another ordinary MODELS data card.          |  ENC1AS
      Another ordinary MODELS data card.          |  ENC2AS
      Another ordinary MODELS data card.          |MODEL DEFAULT
      Another ordinary MODELS data card.          |DATA AnVol,LONG,R0F,R1F,X0F,X1F,RDIVX,RINSER,CLOSE1,RPpos,RPcero,LPpos,LPcero
      Another ordinary MODELS data card.          |OUTPUT o1,o2,o3, o4, o5, o6, o7, o8, o9, o10, o11, o12, o13
      Another ordinary MODELS data card.          |VAR o1,o2,o3, o4, o5, o6, o7, o8, o9, o10, o11, o12, o13
      Another ordinary MODELS data card.          |INIT
      Another ordinary MODELS data card.          |  o1:=AnVol
      Another ordinary MODELS data card.          |  o2:=LONG
      Another ordinary MODELS data card.          |  o3:=R0F
      Another ordinary MODELS data card.          |  o4:=R1F
      Another ordinary MODELS data card.          |  o5:=X0F
      Another ordinary MODELS data card.          |  O6:=X1F
      Another ordinary MODELS data card.          |  o7:=RDIVX
      Another ordinary MODELS data card.          |  o8:=RINSER
      Another ordinary MODELS data card.          |  o9:=CLOSE1
      Another ordinary MODELS data card.          |  o10:=RPpos
      Another ordinary MODELS data card.          |  o11:=RPcero
      Another ordinary MODELS data card.          |  o12:=LPpos
      Another ordinary MODELS data card.          |  o13:=LPcero
      Another ordinary MODELS data card.          |
      Another ordinary MODELS data card.          |ENDINIT
      Another ordinary MODELS data card.          |EXEC
      Another ordinary MODELS data card.          |ENDEXEC
      Another ordinary MODELS data card.          |ENDMODEL
      Another ordinary MODELS data card.          |MODEL DEFAULT1
      Another ordinary MODELS data card.          |DATA CPpos,CPcero,Xp,CR,SIMET,ENC1,ENC2,ENC1AS,ENC2AS
      Another ordinary MODELS data card.          |OUTPUT o1, o2, o3, o4, o5, o6, o7, o8, o9
      Another ordinary MODELS data card.          |VAR o1, o2, o3, o4, o5, o6, o7, o8, o9
      Another ordinary MODELS data card.          |INIT
      Another ordinary MODELS data card.          |  o1:=CPpos
      Another ordinary MODELS data card.          |  o2:=CPcero
      Another ordinary MODELS data card.          |  o3:=Xp
      Another ordinary MODELS data card.          |  o4:=CR
      Another ordinary MODELS data card.          |  o5:=SIMET
      Another ordinary MODELS data card.          |  o6:=ENC1
      Another ordinary MODELS data card.          |  o7:=ENC2
      Another ordinary MODELS data card.          |  o8:=ENC1AS
      Another ordinary MODELS data card.          |  o9:=ENC2AS
      Another ordinary MODELS data card.          |
      Another ordinary MODELS data card.          |ENDINIT
      Another ordinary MODELS data card.          |EXEC
      Another ordinary MODELS data card.          |ENDEXEC
      Another ordinary MODELS data card.          |ENDMODEL
      Another ordinary MODELS data card.          |USE DEFAULT AS DEFAULT
      Another ordinary MODELS data card.          |DATA
      Another ordinary MODELS data card.          |  AnVol:=      0.0
      Another ordinary MODELS data card.          |  LONG:= 460.7277
      Another ordinary MODELS data card.          |  R0F:= 2.423232
      Another ordinary MODELS data card.          |  R1F:= 3.047548
      Another ordinary MODELS data card.          |  X0F:= 10.06578
      Another ordinary MODELS data card.          |  X1F:= 12.65911
      Another ordinary MODELS data card.          |  RDIVX:=  0.24074
      Another ordinary MODELS data card.          |  RINSER:=     380.
      Another ordinary MODELS data card.          |  CLOSE1:= 0.040031
      Another ordinary MODELS data card.          |  RPpos:= 0.028851
      Another ordinary MODELS data card.          |  RPcero:= 0.296876
      Another ordinary MODELS data card.          |  LPpos:= 0.395337
      Another ordinary MODELS data card.          |  LPcero:= 1.402523
      Another ordinary MODELS data card.          |OUTPUT
      Another ordinary MODELS data card.          |  AnVol:=o1
      Another ordinary MODELS data card.          |  LONG:=o2
      Another ordinary MODELS data card.          |  R0F:=o3
      Another ordinary MODELS data card.          |  R1F:=o4
      Another ordinary MODELS data card.          |  X0F:=o5
      Another ordinary MODELS data card.          |  X1F:=o6
      Another ordinary MODELS data card.          |  RDIVX:=o7
      Another ordinary MODELS data card.          |  RINSER:=o8
      Another ordinary MODELS data card.          |  CLOSE1:=o9
      Another ordinary MODELS data card.          |  RPpos:=o10
      Another ordinary MODELS data card.          |  RPcero:=o11
      Another ordinary MODELS data card.          |  LPpos:=o12
      Another ordinary MODELS data card.          |  LPcero:=o13
      Another ordinary MODELS data card.          |ENDUSE
      Another ordinary MODELS data card.          |USE DEFAULT1 AS DEF
      Another ordinary MODELS data card.          |DATA
      Another ordinary MODELS data card.          |  CPpos:= 0.016653
      Another ordinary MODELS data card.          |  CPcero:= 0.006514
      Another ordinary MODELS data card.          |  Xp:= 638.2791
      Another ordinary MODELS data card.          |  CR:= 12.76558
      Another ordinary MODELS data card.          |  SIMET:=       1.
      Another ordinary MODELS data card.          |  ENC1:=      0.0
      Another ordinary MODELS data card.          |  ENC2:=      0.0
      Another ordinary MODELS data card.          |  ENC1AS:=      0.0
      Another ordinary MODELS data card.          |  ENC2AS:=      0.0
      Another ordinary MODELS data card.          |OUTPUT
      Another ordinary MODELS data card.          |  CPpos:=o1
      Another ordinary MODELS data card.          |  CPcero:=o2
      Another ordinary MODELS data card.          |  Xp:=o3
      Another ordinary MODELS data card.          |  CR:=o4
      Another ordinary MODELS data card.          |  SIMET:=o5
      Another ordinary MODELS data card.          |  ENC1:=o6
      Another ordinary MODELS data card.          |  ENC2:=o7
      Another ordinary MODELS data card.          |  ENC1AS:=o8
      Another ordinary MODELS data card.          |  ENC2AS:=o9
      Another ordinary MODELS data card.          |ENDUSE
      Another ordinary MODELS data card.          |RECORD
      Another ordinary MODELS data card.          |  DEFAULT.o1 AS AnVOL
      Another ordinary MODELS data card.          |  DEFAULT.o2 AS LONG
      Another ordinary MODELS data card.          |  DEFAULT.o3 AS R0F
      Another ordinary MODELS data card.          |  DEFAULT.o4 AS R1F
      Another ordinary MODELS data card.          |  DEFAULT.o5 AS X0F
      Another ordinary MODELS data card.          |  DEFAULT.o6 AS X1F
      Another ordinary MODELS data card.          |  DEFAULT.o7 AS RDIVX
      Another ordinary MODELS data card.          |  DEFAULT.o8 AS RINSER
      Another ordinary MODELS data card.          |  DEFAULT.o9 AS CLOSE1
      Another ordinary MODELS data card.          |  DEFAULT.o10 AS RPpos
      Another ordinary MODELS data card.          |  DEFAULT.o11 AS RPcero
      Another ordinary MODELS data card.          |  DEFAULT.o12 AS LPpos
      Another ordinary MODELS data card.          |  DEFAULT.o13 AS LPcero
      Another ordinary MODELS data card.          |  DEF.o1 AS CPpos
      Another ordinary MODELS data card.          |  DEF.o2 AS CPcero
      Another ordinary MODELS data card.          |  DEF.o3 AS Xp
      Another ordinary MODELS data card.          |  DEF.o4 AS CR
      Another ordinary MODELS data card.          |  DEF.o5 AS SIMET
      Another ordinary MODELS data card.          |  DEF.o6 AS ENC1
      Another ordinary MODELS data card.          |  DEF.o7 AS ENC2
      Another ordinary MODELS data card.          |  DEF.o8 AS ENC1AS
      Another ordinary MODELS data card.          |  DEF.o9 AS ENC2AS
Termination of data for Laurent Dube`s MODELS.    |ENDMODELS
Comment card.   NUMDCD = 153.                     |C        1         2         3         4         5         6         7         8
Comment card.   NUMDCD = 154.                     |C 345678901234567890123456789012345678901234567890123456789012345678901234567890
Optional blank card follows last of MODELS data.  |BLANK MODELS
Comment card.   NUMDCD = 156.                     |C < n1 >< n2 ><ref1><ref2>< R  >< L  >< C  >
Comment card.   NUMDCD = 157.                     |C < n1 >< n2 ><ref1><ref2>< R  >< A  >< B  ><Leng><><>0
1st of coupled R-L.   2.42320E+00  3.20404E-02    |51IFUENASB1A              2.423210.065784353
2nd coil. 3.047E+00 4.030E-02 0.000E+00 0.000E+00 |52IFUENBSB1B              3.0475 12.65910949
Zca, Zcc=-2.081E-01-2.752E-03 2.839E+00 3.754E-02 |53IFUENCSB1C
Series R-L-C.   1.000E+09  0.000E+00  0.000E+00   |  SB1A                      1.E9                                               0
Series R-L-C.   1.000E+09  0.000E+00  0.000E+00   |  SB1B                      1.E9                                               0
Series R-L-C.   1.000E+09  0.000E+00  0.000E+00   |  SB1C                      1.E9                                               0
Series R-L-C.   1.000E+09  0.000E+00  0.000E+00   |  RSNSHA                    1.E9                                               0
Series R-L-C.   1.000E+09  0.000E+00  0.000E+00   |  RSNSHB                    1.E9                                               0
Series R-L-C.   1.000E+09  0.000E+00  0.000E+00   |  RSNSHC                    1.E9                                               0
Series R-L-C.   1.000E+09  0.000E+00  0.000E+00   |  RSNNHA                    1.E9                                               0
Series R-L-C.   1.000E+09  0.000E+00  0.000E+00   |  RSNNHB                    1.E9                                               0
Series R-L-C.   1.000E+09  0.000E+00  0.000E+00   |  RSNNHC                    1.E9                                               0
Series R-L-C.   1.000E+09  0.000E+00  0.000E+00   |  SE2A                      1.E9                                               0
Series R-L-C.   1.000E+09  0.000E+00  0.000E+00   |  SE2B                      1.E9                                               0
Series R-L-C.   1.000E+09  0.000E+00  0.000E+00   |  SE2C                      1.E9                                               0
Series R-L-C.   2.500E+02  0.000E+00  3.000E-10   |  X0001B                    250.       .0003                                   0
Series R-L-C.   2.500E+02  0.000E+00  3.000E-10   |  X0002B                    250.       .0003                                   0
Series R-L-C.   1.000E-06  0.000E+00  0.000E+00   |  X0001ALN1A               1.E-6                                               0
Series R-L-C.   1.000E-06  0.000E+00  0.000E+00   |  SB1A  X0002A             1.E-6                                               0
Series R-L-C.   1.000E-06  0.000E+00  0.000E+00   |  X0001BLN1B               1.E-6                                               0
Series R-L-C.   1.000E-06  0.000E+00  0.000E+00   |  SB1B  X0002B             1.E-6                                               0
Series R-L-C.   1.000E-06  0.000E+00  0.000E+00   |  X0001CLN1C               1.E-6                                               0
Series R-L-C.   1.000E-06  0.000E+00  0.000E+00   |  SB1C  X0002C             1.E-6                                               0
Series R-L-C.   3.800E+02  0.000E+00  0.000E+00   |  XX0005X0002A              380.                                               0
Series R-L-C.   3.800E+02  0.000E+00  0.000E+00   |  XX0003X0002B              380.                                               0
Series R-L-C.   3.800E+02  0.000E+00  0.000E+00   |  XX0004X0002C              380.                                               0
Series R-L-C.   2.500E+02  0.000E+00  3.000E-10   |  X0001A                    250.       .0003                                   0
Series R-L-C.   1.000E+06  0.000E+00  0.000E+00   |  X0001AX0002A              1.E6                                               0
Series R-L-C.   1.000E+06  0.000E+00  0.000E+00   |  X0001BX0002B              1.E6                                               0
Series R-L-C.   1.000E+06  0.000E+00  0.000E+00   |  X0001CX0002C              1.E6                                               0
Series R-L-C.   2.500E+02  0.000E+00  3.000E-10   |  X0002C                    250.       .0003                                   0
Series R-L-C.   2.500E+02  0.000E+00  3.000E-10   |  X0002A                    250.       .0003                                   0
Series R-L-C.   2.500E+02  0.000E+00  3.000E-10   |  X0001C                    250.       .0003                                   0
Series R-L-C.   1.250E+02  0.000E+00  6.000E-10   |  X0001AX0002A              125.       .0006                                   0
Series R-L-C.   1.250E+02  0.000E+00  6.000E-10   |  X0001BX0002B              125.       .0006                                   0
Series R-L-C.   1.250E+02  0.000E+00  6.000E-10   |  X0001CX0002C              125.       .0006                                   0
 2.969E-01 1.403E+00 6.510E-03 8.281E+02 2.484E-03|-1LN1A  VFF2A             .296881.4025.00651460.73 0 0                         0
 2.885E-02 3.953E-01 1.665E-02 2.749E+02 2.109E-03|-2LN1B  VFF2B             .02885.39534.01665460.73 0 0                         0
3rd or later transposed distributed phase.        |-3LN1C  VFF2C                                                                  0
Blank card ending branches.  IBR, NTOT = 39  31   |BLANK BRANCH
Comment card.   NUMDCD = 198.                     |C < n 1>< n 2>< Tclose ><Top/Tde ><   Ie   ><Vf/CLOP ><  type  >
Switch.  -1.00E+00  1.00E+01  0.00E+00  0.00E+00  |  LN1A  COMPA        -1.       10.                                             0
Switch.  -1.00E+00  1.00E+01  0.00E+00  0.00E+00  |  LN1B  COMPB        -1.       10.                                             0
Switch.  -1.00E+00  1.00E+01  0.00E+00  0.00E+00  |  LN1C  COMPC        -1.       10.                                             0
Switch.  -1.00E+00  1.00E+01  0.00E+00  0.00E+00  |  VFF2A RSNNHA       -1.       10.                                             0
Switch.  -1.00E+00  1.00E+01  0.00E+00  0.00E+00  |  VFF2B RSNNHB       -1.       10.                                             0
Switch.  -1.00E+00  1.00E+01  0.00E+00  0.00E+00  |  VFF2C RSNNHC       -1.       10.                                             0
Switch.   2.00E+00 -1.00E+00  0.00E+00  0.00E+00  |  VFF2A SE2A          2.       -1.                                             0
Switch.   2.00E+00 -1.00E+00  0.00E+00  0.00E+00  |  VFF2B SE2B          2.       -1.                                             0
Switch.   2.00E+00 -1.00E+00  0.00E+00  0.00E+00  |  VFF2C SE2C          2.       -1.                                             0
Switch.   4.00E-02  1.00E+03  0.00E+00  0.00E+00  |  X0001BXX0003.040031327      1.E3                                             0
Switch.   4.00E-02  1.00E+03  0.00E+00  0.00E+00  |  X0001CXX0004.040031327      1.E3                                             0
Switch.   4.75E-02  1.00E+03  0.00E+00  0.00E+00  |  XX0005X0002A.047531327      1.E3                                             0
Switch.   4.75E-02  1.00E+03  0.00E+00  0.00E+00  |  XX0003X0002B.047531327      1.E3                                             0
Switch.   4.75E-02  1.00E+03  0.00E+00  0.00E+00  |  XX0004X0002C.047531327      1.E3                                             0
Switch.   4.00E-02  1.00E+03  0.00E+00  0.00E+00  |  X0001AXX0005.040031327      1.E3                                             0
Permanently-closed switch used for metering.      |  VFUENAIFUENA                                        MEASURING                1
Permanently-closed switch used for metering.      |  VFUENBIFUENB                                        MEASURING                1
Permanently-closed switch used for metering.      |  VFUENCIFUENC                                        MEASURING                1
Permanently-closed switch used for metering.      |  COMPA RSNSHA                                        MEASURING                1
Permanently-closed switch used for metering.      |  COMPB RSNSHB                                        MEASURING                1
Permanently-closed switch used for metering.      |  COMPC RSNSHC                                        MEASURING                1
Blank card ending switches.   KSWTCH = 21.        |BLANK SWITCH
Comment card.   NUMDCD = 221.                     |C < n 1><>< Ampl.  >< Freq.  ><Phase/T0><   A1   ><   T1   >< TSTART >< TSTOP  >
Source.   4.29E+05  5.00E+01  0.00E+00 -1.00E+00  |14VFUENA  428660.705       50.                                     -1.      100.
Source.   4.29E+05  5.00E+01 -1.20E+02 -1.00E+00  |14VFUENB  428660.705       50.     -120.                           -1.      100.
Source.   4.29E+05  5.00E+01 -2.40E+02 -1.00E+00  |14VFUENC  428660.705       50.     -240.                           -1.      100.
Blank card ends electric sources.  KCONST = 3     |BLANK SOURCE
Pi-equivalent branches of distributed circuits are added to the table of List Size 3 between indices  40   and  45.

Sinusoidal steady-state phasor solution, branch by branch.   All flows are away from a bus,  and the real part,  magnitude,  or  "P"
is printed above the imaginary part,  the angle,  or  "Q".   The first solution frequency  =  5.00000000E+01  Hertz.
  Bus K                        Phasor  node  voltage              Phasor  branch  current               Power flow       Power loss
             Bus M         Rectangular            Polar          Rectangular            Polar            P  and  Q        P  and  Q

 IFUENA                    428660.705       428660.705      .42903898210459  .44586752660144      91956.076270718   .3029182258837
                                  0.0              0.0      .12134003095573       15.7918684       -26006.8516071        1.2583019

            SB1A      428660.93356044  428660.93359969      -.4290389821046  .44586752660144      -91955.77335249
                      -5.801035194276       -0.0007754      -.1213400309557     -164.2081316      26008.109908986

 IFUENB                  -214330.3525       428660.705      -.1094359417454  .44586752660204      91956.076270637  .30291822588579
                      -371231.0601341     -120.0000000      -.4322286731957     -104.2081316      -26006.85160786        1.2583019

            SB1B      -214335.4906241  428660.93359969      .10943594174538  .44586752660204      -91955.77335241
                      -371228.3575557     -120.0007754      .43222867319571       75.7918684      26008.109909747

 IFUENC                  -214330.3525       428660.705      -.3196030403562   .4458675266011      91956.076270611  .30291822588398
                      371231.06013415      120.0000000      .31088864223781      135.7918684      -26006.85160722        1.2583019

            SB1C      -214325.4429364  428660.93359969      .31960304035618   .4458675266011      -91955.77335238
                      371234.15859089      119.9992246      -.3108886422378      -44.2081316      26008.109909105

 SB1A                 428660.93356044  428660.93359969      .42866093356E-3   .4286609336E-3       91.87509799728   91.87509799728
                      -5.801035194276       -0.0007754      -.5801035194E-8       -0.0007754      -.889384595E-20        0.0000000

            TERRA                 0.0              0.0      -.4286609336E-3   .4286609336E-3                  0.0
                                  0.0              0.0      .58010351943E-8      179.9992246                  0.0

 SB1B                 -214335.4906241  428660.93359969      -.2143354906E-3   .4286609336E-3       91.87509799728   91.87509799728
                      -371228.3575557     -120.0007754      -.3712283576E-3     -120.0007754      -.217187379E-14        0.0000000

            TERRA                 0.0              0.0      .21433549062E-3   .4286609336E-3                  0.0
                                  0.0              0.0      .37122835756E-3       59.9992246                  0.0

 SB1C                 -214325.4429364  428660.93359969      -.2143254429E-3   .4286609336E-3       91.87509799728   91.87509799728
                      371234.15859089      119.9992246      .37123415859E-3      119.9992246      -.272351586E-14        0.0000000

            TERRA                 0.0              0.0      .21432544294E-3   .4286609336E-3                  0.0
                                  0.0              0.0      -.3712341586E-3      -60.0007754                  0.0

 RSNSHA               30.741373889398  153.71369156861      .30741373889E-7  .15371369157E-6      .11813949488E-4  .11813949488E-4
                      -150.6083228346      -78.4635600      -.1506083228E-6      -78.4635600      .1753622899E-21        0.0000000

            TERRA                 0.0              0.0      -.3074137389E-7  .15371369157E-6                  0.0
                                  0.0              0.0      .15060832283E-6      101.5364400                  0.0

 RSNSHB               -145.8013205408  153.71369156861      -.1458013205E-6  .15371369157E-6      .11813949488E-4  .11813949488E-4
                      48.681350681829      161.5364400      .48681350682E-7      161.5364400      .2994393817E-21        0.0000000

            TERRA                 0.0              0.0      .14580132054E-6  .15371369157E-6                  0.0
                                  0.0              0.0      -.4868135068E-7      -18.4635600                  0.0

 RSNSHC                115.0599466514  153.71369156861      .11505994665E-6  .15371369157E-6      .11813949488E-4  .11813949488E-4
                      101.92697215274       41.5364400      .10192697215E-6       41.5364400      -.550902288E-21        0.0000000

            TERRA                 0.0              0.0      -.1150599467E-6  .15371369157E-6                  0.0
                                  0.0              0.0      -.1019269722E-6     -138.4635600                  0.0

 RSNNHA                35.37637910312  194.93455516938      .35376379103E-7  .19493455517E-6        .189997404E-4    .189997404E-4
                       -191.697659351      -79.5441253      -.1916976594E-6      -79.5441253      -.599705944E-23        0.0000000

            TERRA                 0.0              0.0       -.353763791E-7  .19493455517E-6                  0.0
                                  0.0              0.0      .19169765935E-6      100.4558747                  0.0

 RSNNHB               -183.7032323955  194.93455516938      -.1837032324E-6  .19493455517E-6        .189997404E-4    .189997404E-4
                      65.211986678271      160.4558747      .65211986678E-7      160.4558747       -.37843513E-21        0.0000000

            TERRA                 0.0              0.0       .1837032324E-6  .19493455517E-6                  0.0
                                  0.0              0.0      -.6521198668E-7      -19.5441253                  0.0

 RSNNHC               148.32685329239  194.93455516938      .14832685329E-6  .19493455517E-6        .189997404E-4    .189997404E-4
                      126.48567267269       40.4558747      .12648567267E-6       40.4558747      -.585643874E-21        0.0000000

            TERRA                 0.0              0.0      -.1483268533E-6  .19493455517E-6                  0.0
                                  0.0              0.0      -.1264856727E-6     -139.5441253                  0.0

 X0001B                -145.801320685  153.71369157502      -.4588432944E-5  .14487174122E-4      .26234776756E-7  .26234776756E-7
                       48.68135027019      161.5364401      -.1374134263E-4     -108.4649099      -.0011134385071       -0.0011134

            TERRA                 0.0              0.0       .4588432944E-5  .14487174122E-4                  0.0
                                  0.0              0.0      .13741342626E-4       71.5350901                  0.0

 X0002B                -214335.490624  428660.93359926      .03498697244111  .04040034118508      .20402344598356  .20402344598356
                      -371228.3575553     -120.0007754      -.0202014684436      -30.0021254      -8659.023982658    -8659.0239827

            TERRA                 0.0              0.0      -.0349869724411  .04040034118508                  0.0
                                  0.0              0.0      .02020146844355      149.9978746                  0.0

 X0001A               30.741374317988  153.71369157502      .42859060656042  .43616587599911      .49285532625554  .95120335693E-7
                      -150.6083227536      -78.4635599      .08093678616206       10.6940302      -33.51871022076              0.0

            LN1A      30.741373889398  153.71369156861      -.4285906065604  .43616587599911      -.4928552311352
                      -150.6083228346      -78.4635600      -.0809367861621     -169.3059698      33.518710220764

 SB1A                 428660.93356044  428660.93359969      .42858300730586  .44542878067551      91858.044061024  .99203404602E-7
                      -5.801035194276       -0.0007754      .12134003668507       15.8078310      -26008.10981439              0.0

            X0002A    428660.93356001  428660.93359926      -.4285830073059  .44542878067551      -91858.04406092
                      -5.801035315616       -0.0007754      -.1213400366851     -164.1921690      26008.109814394

 X0001B                -145.801320685  153.71369157502      -.1442019765818  .43616587648618      .49285419151069  .95120335906E-7
                       48.68135027019      161.5364401      -.4116387515296     -109.3059679      -33.51871027489              0.0

            LN1B      -145.8013205408  153.71369156861      .14420197658183  .43616587648618      -.4928540963904
                      48.681350681829      161.5364400      .41163875152961       70.6940321      33.518710274888

 SB1B                 -214335.4906241  428660.93359969      -.1092266757041  .44544194821166      91861.692864383  .99209259474E-7
                      -371228.3575557     -120.0007754       -.431842636317     -104.1942253      -26005.58195224        0.0000000

            X0002B     -214335.490624  428660.93359926      .10922667570412  .44544194821166      -91861.69286428
                      -371228.3575553     -120.0007754      .43184263631701       75.8057747      26005.581952244

 X0001C               115.05994636701  153.71369157502      -.2843886193205  .43616587131255      .49285469468385   .9512033365E-7
                      101.92697248344       41.5364401       .3307019511567      130.6940312      -33.51870986982              0.0

            LN1C       115.0599466514  153.71369156861      .28438861932045  .43616587131255      -.4928545995635
                      101.92697215274       41.5364400      -.3307019511567      -49.3059688      33.518709869818

 SB1C                 -214325.4429364  428660.93359969      -.3193854354322  .44542639986514      91856.540742903  .99202338788E-7
                      371234.15859089      119.9992246      .31047966331244      135.8100610      -26011.54601334              0.0

            X0002C    -214325.4429361  428660.93359926       .3193854354322  .44542639986514       -91856.5407428
                      371234.15859058      119.9992246      -.3104796633124      -44.1899390      26011.546013341

 XX0005               428660.93356001  428660.93359926                  0.0              0.0                  0.0              0.0
                      -5.801035315616       -0.0007754                  0.0              0.0                  0.0              0.0

            X0002A    428660.93356001  428660.93359926                  0.0              0.0                  0.0
                      -5.801035315616       -0.0007754                  0.0              0.0                  0.0

 XX0003                -214335.490624  428660.93359926                  0.0              0.0                  0.0              0.0
                      -371228.3575553     -120.0007754                  0.0              0.0                  0.0              0.0

            X0002B     -214335.490624  428660.93359926                  0.0              0.0                  0.0
                      -371228.3575553     -120.0007754                  0.0              0.0                  0.0

 XX0004               -214325.4429361  428660.93359926                  0.0              0.0                  0.0              0.0
                      371234.15859058      119.9992246                  0.0              0.0                  0.0              0.0

            X0002C    -214325.4429361  428660.93359926                  0.0              0.0                  0.0
                      371234.15859058      119.9992246                  0.0              0.0                  0.0

 X0001A               30.741374317988  153.71369157502      .14194568268E-4  .14487174122E-4      .26234776756E-7  .26234776756E-7
                      -150.6083227536      -78.4635599      .28969718199E-5       11.5350901      -.0011134385071       -0.0011134

            TERRA                 0.0              0.0      -.1419456827E-4  .14487174122E-4                  0.0
                                  0.0              0.0       -.289697182E-5     -168.4649099                  0.0

 X0001A               30.741374317988  153.71369157502      -.4286301921857  .42863021664635      -6.577435999644  91861.931311147
                      -150.6083227536      -78.4635599      -.1448072874E-3     -179.9806433       32.27986295084        0.0000000

            X0002A    428660.93356001  428660.93359926      .42863019218569  .42863021664635      91868.508747147
                      -5.801035315616       -0.0007754      .14480728744E-3        0.0193567      -32.27986295084

 X0001B                -145.801320685  153.71369157502      .21418968930327  .42863021664635      -6.577435999644  91861.931311147
                       48.68135027019      161.5364401      .37127703890554       60.0193567       32.27986295084        0.0000000

            X0002B     -214335.490624  428660.93359926      -.2141896893033  .42863021664635      91868.508747147
                      -371228.3575553     -120.0007754      -.3712770389055     -119.9806433      -32.27986295084

 X0001C               115.05994636701  153.71369157502      .21444050288242  .42863021664635      -6.577435999644  91861.931311147
                      101.92697248344       41.5364401      -.3711322316181      -59.9806433       32.27986295084        0.0000000

            X0002C    -214325.4429361  428660.93359926      -.2144405028824  .42863021664635      91868.508747147
                      371234.15859058      119.9992246       .3711322316181      120.0193567      -32.27986295084

 X0002C               -214325.4429361  428660.93359926      -.0349884710864  .04040034118508      .20402344598446  .20402344598446
                      371234.15859058      119.9992246      -.0201988727137     -150.0021254      -8659.023982658    -8659.0239827

            TERRA                 0.0              0.0      .03498847108642  .04040034118508                  0.0
                                  0.0              0.0      .02019887271373       29.9978746                  0.0

 X0002A               428660.93356001  428660.93359926      .14986453103E-5  .04040034118508      .20402344598383  .20402344598383
                      -5.801035315616       -0.0007754      .04040034115728       89.9978746      -8659.023982658    -8659.0239827

            TERRA                 0.0              0.0       -.149864531E-5  .04040034118508                  0.0
                                  0.0              0.0      -.0404003411573      -90.0021254                  0.0

 X0001C               115.05994636701  153.71369157502      -.9606135324E-5  .14487174122E-4      .26234776756E-7  .26234776756E-7
                      101.92697248344       41.5364401      .10844370806E-4      131.5350901      -.0011134385071       -0.0011134

            TERRA                 0.0              0.0      .96061353242E-5  .14487174122E-4                  0.0
                                  0.0              0.0      -.1084437081E-4      -48.4649099                  0.0

 X0001A               30.741374317988  153.71369157502      .25391845916E-4  .08079489236094      6.0845816024256  .40798841447598
                      -150.6083227536      -78.4635599      -.0807948883709      -89.9819933      1.2399608415328   -17315.5661035

            X0002A    428660.93356001  428660.93359926      -.2539184592E-4  .08079489236094       -5.67659318795
                      -5.801035315616       -0.0007754      .08079488837092       90.0180067      -17316.80606433

 X0001B                -145.801320685  153.71369157502      -.0699831217481  .08079489236094      6.0845816024256  .40798841447568
                       48.68135027019      161.5364401      .04037545420185      150.0180067      1.2399608415328   -17315.5661035

            X0002B     -214335.490624  428660.93359926       .0699831217481  .08079489236094       -5.67659318795
                      -371228.3575553     -120.0007754      -.0403754542018      -29.9819933      -17316.80606433

 X0001C               115.05994636701  153.71369157502      .06995772990219  .08079489236094      6.0845816024256  .40798841447629
                      101.92697248344       41.5364401      .04041943416907       30.0180067      1.2399608415328   -17315.5661035

            X0002C    -214325.4429361  428660.93359926      -.0699577299022  .08079489236094      -5.676593187949
                      371234.15859058      119.9992246      -.0404194341691     -149.9819933      -17316.80606433

 LN1A                 30.741373889398  153.71369156861      .42859057315724   .4361658751504      .49284174215793  .49282274241755
                      -150.6083228346      -78.4635600      .08093695847056       10.6940532      -33.51871035387      -33.5187104

            VFF2A      35.37637910312  194.93455516938      -.3537637895E-7  .19493455507E-6      -.1899974039E-4
                       -191.697659351      -79.5441253      .19169765927E-6      100.4558746      -.135646287E-13

 LN1B                 -145.8013205408  153.71369156861      -.1442018244381   .4361658751504      .49284174215794  .49282274241755
                      48.681350681829      161.5364400       -.411638803412     -109.3059468      -33.51871035387      -33.5187104

            VFF2B     -183.7032323955  194.93455516938      .18370323244E-6  .19493455514E-6       -.189997404E-4
                      65.211986678271      160.4558747      -.6521198647E-7      -19.5441253      .2008180778E-13

 LN1C                  115.0599466514  153.71369156861      -.2843887487192   .4361658751504      .49284174215795  .49282274241755
                      101.92697215274       41.5364400      .33070184494142      130.6940532      -33.51871035387      -33.5187104

            VFF2C     148.32685329239  194.93455516938      -.1483268534E-6   .1949345552E-6       -.189997404E-4
                      126.48567267269       40.4558747      -.1264856726E-6     -139.5441253      -.927203258E-14
     Total network loss  P-loss  by summing injections =   2.758661927111E+05

Output for steady-state phasor switch currents.
      Node-K    Node-M            I-real            I-imag            I-magn          Degrees        Power            Reactive
      LN1A      COMPA         3.44592525E-08   -1.34817755E-07    1.39151957E-07     -75.6622    1.06820004E-05   -5.22683606E-07
      LN1B      COMPB        -1.49953534E-07    5.15199287E-08    1.58557136E-07     161.0387    1.21857415E-05    1.05866519E-07
      LN1C      COMPC         1.16613141E-07    1.17256822E-07    1.65371664E-07      45.1577    1.26845673E-05   -8.02769679E-07
      VFF2A     RSNNHA        3.53763789E-08   -1.91697659E-07    1.94934555E-07     -79.5441    1.89997404E-05    1.61727799E-14
      VFF2B     RSNNHB       -1.83703232E-07    6.52119864E-08    1.94934555E-07     160.4559    1.89997404E-05   -2.28632954E-14
      VFF2C     RSNNHC        1.48326853E-07    1.26485673E-07    1.94934555E-07      40.4559    1.89997404E-05    7.50196348E-15
      VFF2A     SE2A              Open              Open              Open             Open          Open              Open
      VFF2B     SE2B              Open              Open              Open             Open          Open              Open
      VFF2C     SE2C              Open              Open              Open             Open          Open              Open
      X0001B    XX0003            Open              Open              Open             Open          Open              Open
      X0001C    XX0004            Open              Open              Open             Open          Open              Open
      XX0005    X0002A            Open              Open              Open             Open          Open              Open
      XX0003    X0002B            Open              Open              Open             Open          Open              Open
      XX0004    X0002C            Open              Open              Open             Open          Open              Open
      X0001A    XX0005            Open              Open              Open             Open          Open              Open
      VFUENA    IFUENA        4.29038982E-01    1.21340031E-01    4.45867527E-01      15.7919    9.19560763E+04   -2.60068516E+04
      VFUENB    IFUENB       -1.09435942E-01   -4.32228673E-01    4.45867527E-01    -104.2081    9.19560763E+04   -2.60068516E+04
      VFUENC    IFUENC       -3.19603040E-01    3.10888642E-01    4.45867527E-01     135.7919    9.19560763E+04   -2.60068516E+04
      COMPA     RSNSHA        3.44592525E-08   -1.34817755E-07    1.39151957E-07     -75.6622    1.06820004E-05   -5.22683606E-07
      COMPB     RSNSHB       -1.49953534E-07    5.15199287E-08    1.58557136E-07     161.0387    1.21857415E-05    1.05866519E-07
      COMPC     RSNSHC        1.16613141E-07    1.17256822E-07    1.65371664E-07      45.1577    1.26845673E-05   -8.02769679E-07

Solution at nodes with known voltage.   Nodes that are shorted together by switches are shown as a group of names, with the printed
result applying to the composite group.   The entry "MVA" is  SQRT( P**2 + Q**2 )  in units of power,  while  "P.F."  is the
associated power factor.
              Node                Source  node  voltage             Injected  source  current              Injected  source  power
              name         Rectangular            Polar          Rectangular            Polar            P  and  Q    MVA and P.F.

               VFUENA
              IFUENA       428660.705       428660.705      .42903898210543  .44586752660336      91956.076270897  95562.944145201
                                  0.0              0.0      .12134003095984       15.7918684      -26006.85160798        0.9622566

               VFUENB
              IFUENB     -214330.3525       428660.705      -.1094359417487  .44586752660245      91956.076270919  95562.944145006
                      -371231.0601341     -120.0000000      -.4322286731953     -104.2081316      -26006.85160719        0.9622566

               VFUENC
              IFUENC     -214330.3525       428660.705      -.3196030403567  .44586752660201      91956.076270807  95562.944144912
                      371231.06013415      120.0000000      .31088864223855      135.7918684      -26006.85160724        0.9622566

  +++  Node  "COMPC "  has no connected linear branches.  Add (to ground) the conductance  G = 1.00000000E-18  mhos.
  +++  Node  "COMPB "  has no connected linear branches.  Add (to ground) the conductance  G = 1.00000000E-18  mhos.
  +++  Node  "COMPA "  has no connected linear branches.  Add (to ground) the conductance  G = 1.00000000E-18  mhos.
Card of names for time-step loop output.          |  LN1A  LN1B  LN1C  COMPA COMPB COMPC SB1A  SB1B  SB1C  SE2A  SE2B  SE2C  VFF2A
Card of names for time-step loop output.          |  VFF2B VFF2C IFUENAIFUENBIFUENC
Card of names for time-step loop output.          |-5VFF2A VFF2B VFF2B VFF2C VFF2C VFF2A LN1A  LN1B  LN1B  LN1C  LN1C  LN1A
Card of names for time-step loop output.          |-5SB1A  SB1B  SB1B  SB1C  SB1C  SB1A
Blank card ending requests for output variables.  |BLANK OUTPUT

Column headings for the  55   EMTP output variables follow.  These are divided among the 5 possible classes as follows ....
  First  27     output variables are electric-network voltage differences (upper voltage minus lower voltage);
  Next   6     output variables are branch currents (flowing from the upper node to the lower node);
  Next   22     output variables belong to MODELS (with "MODELS" an internally-added upper name of pair).
   Step      Time      LN1A       LN1B       LN1C       COMPA      COMPB      COMPC      SB1A       SB1B       SB1C       SE2A
 

                       SE2B       SE2C       VFF2A      VFF2B      VFF2C      IFUENA     IFUENB     IFUENC     VFF2A      VFF2B
                                                                                                               VFF2B      VFF2C

                       VFF2C      LN1A       LN1B       LN1C       SB1A       SB1B       SB1C       VFUENA     VFUENB     VFUENC
                       VFF2A      LN1B       LN1C       LN1A       SB1B       SB1C       SB1A       IFUENA     IFUENB     IFUENC

                       COMPA      COMPB      COMPC      MODELS     MODELS     MODELS     MODELS     MODELS     MODELS     MODELS
                       RSNSHA     RSNSHB     RSNSHC     ANVOL      LONG       R0F        R1F        X0F        X1F        RDIVX

                       MODELS     MODELS     MODELS     MODELS     MODELS     MODELS     MODELS     MODELS     MODELS     MODELS
                       RINSER     CLOSE1     RPPOS      RPCERO     LPPOS      LPCERO     CPPOS      CPCERO     XP         CR

                       MODELS     MODELS     MODELS     MODELS     MODELS
                       SIMET      ENC1       ENC2       ENC1AS     ENC2AS
 ***      Phasor I(0) =  3.4459252E-08                     Switch  "LN1A  "  to  "COMPA "  closed in the steady-state.
 ***      Phasor I(0) = -1.4995353E-07                     Switch  "LN1B  "  to  "COMPB "  closed in the steady-state.
 ***      Phasor I(0) =  1.1661314E-07                     Switch  "LN1C  "  to  "COMPC "  closed in the steady-state.
 ***      Phasor I(0) =  3.5376379E-08                     Switch  "VFF2A "  to  "RSNNHA"  closed in the steady-state.
 ***      Phasor I(0) = -1.8370323E-07                     Switch  "VFF2B "  to  "RSNNHB"  closed in the steady-state.
 ***      Phasor I(0) =  1.4832685E-07                     Switch  "VFF2C "  to  "RSNNHC"  closed in the steady-state.
 ***      Phasor I(0) =  4.2903898E-01                     Switch  "VFUENA"  to  "IFUENA"  closed in the steady-state.
 ***      Phasor I(0) = -1.0943594E-01                     Switch  "VFUENB"  to  "IFUENB"  closed in the steady-state.
 ***      Phasor I(0) = -3.1960304E-01                     Switch  "VFUENC"  to  "IFUENC"  closed in the steady-state.
 ***      Phasor I(0) =  3.4459252E-08                     Switch  "COMPA "  to  "RSNSHA"  closed in the steady-state.
 ***      Phasor I(0) = -1.4995353E-07                     Switch  "COMPB "  to  "RSNSHB"  closed in the steady-state.
 ***      Phasor I(0) =  1.1661314E-07                     Switch  "COMPC "  to  "RSNSHC"  closed in the steady-state.
      0       0.0  30.7413739 -145.80132 115.059947 30.7413739 -145.80132 115.059947 428660.934 -214335.49 -214325.44        0.0
                          0.0        0.0 35.3763791 -183.70323 148.326853 428660.705 -214330.35 -214330.35 219.079611 -332.03009
                   112.950474 176.542694 -260.86127 84.3185728 642996.424 -10.047688 -642986.38 .429038982 -.10943594 -.31960304
                   .344593E-7 -.14995E-6 .116613E-6        0.0   460.7277   2.423232   3.047548   10.06578   12.65911     .24074
                         380.    .040031    .028851    .296876    .395337   1.402523    .016653    .006514   638.2791   12.76558
                          1.0        0.0        0.0        0.0        0.0
    500     .5E-3  53.9238023 -151.62199 97.6981875 53.9238023 -151.62199 97.6981875 423384.352 -153623.77 -269760.58        0.0
                          0.0        0.0 64.9289578 -191.64294 126.713985  423383.18 -153618.26 -269764.92   256.5719 -318.35693
                   61.7850269 205.545792 -249.32018 43.7743852 577008.127 116136.803 -693144.93 .404747472 -.04046353 -.36428394
                   .566181E-7 -.14833E-6 .988075E-7        0.0   460.7277   2.423232   3.047548   10.06578   12.65911     .24074
                         380.    .040031    .028851    .296876    .395337   1.402523    .016653    .006514   638.2791   12.76558
                          1.0        0.0        0.0        0.0        0.0
   1000     .1E-2  75.7771629 -153.70858 77.9314207 75.7771629 -153.70858 77.9314207 407682.574 -89129.297 -318553.28        0.0
                          0.0        0.0 92.8827701 -194.86377 101.980998 407680.557 -89123.572 -318556.98 287.746538 -296.84477
                   9.09822755 229.485747    -231.64 2.15425785  496811.87  229423.98 -726235.85 .370513964 .029493089 -.40000705
                   .782776E-7 -.15168E-6 .876098E-7        0.0   460.7277   2.423232   3.047548   10.06578   12.65911     .24074
                         380.    .040031    .028851    .296876    .395337   1.402523    .016653    .006514   638.2791   12.76558
                          1.0        0.0        0.0        0.0        0.0
   1500     .0015  95.7654627 -152.01077 56.2453105 95.7654627 -152.01077 56.2453105 381942.321 -22440.172 -359502.15        0.0
                          0.0        0.0   118.5495  -193.2864    74.7369 381939.485 -22434.368 -359505.12 311.835901  -268.0233
                     -43.8126 247.776236 -208.25608 -39.520152 404382.494 337061.977 -741444.47 .327161525 .098721325 -.42588285
                    .97245E-7 -.15405E-6 .567816E-7        0.0   460.7277   2.423232   3.047548   10.06578   12.65911     .24074
                         380.    .040031    .028851    .296876    .395337   1.402523    .016653    .006514   638.2791   12.76558
                          1.0        0.0        0.0        0.0        0.0
   2000      .002  113.395643 -146.56992 33.1742815 113.395643 -146.56992 33.1742815 346797.389    44801.5 -391598.89        0.0
                          0.0        0.0 141.297149 -186.94968 45.6525319 346793.795 44807.2448 -391601.04 328.246829 -232.60221
                   -95.644617 259.965568 -179.74421 -80.221362 301995.889 436400.389 -738396.28 .275752952  .16551888 -.44127183
                   .113417E-6 -.16585E-6 .382151E-7        0.0   460.7277   2.423232   3.047548   10.06578   12.65911     .24074
                         380.    .040031    .028851    .296876    .395337   1.402523    .016653    .006514   638.2791   12.76558
                          1.0        0.0        0.0        0.0        0.0
   2500     .0025  128.233597 -137.52001 9.28641608 128.233597 -137.52001 9.28641608 303113.154 110940.011 -414053.16        0.0
                          0.0        0.0 160.564638 -176.00916 15.4445184 303108.891 110945.554 -414054.45 336.573794 -191.45367
                   -145.12012  265.75361 -146.80643 -118.94718 192173.143 524993.176 -717166.32 .217554218 .228240915 -.44579513
                   .142255E-6 -.13927E-6 .945329E-8        0.0   460.7277   2.423232   3.047548   10.06578   12.65911     .24074
                         380.    .040031    .028851    .296876    .395337   1.402523    .016653    .006514   638.2791   12.76558
                          1.0        0.0        0.0        0.0        0.0
   3000      .003  139.914022 -125.08391 -14.830115 139.914022 -125.08391 -14.830115 251965.268  174346.81 -426312.08        0.0
                          0.0        0.0 175.879702 -160.73532 -15.144385 251960.441 174352.016 -426312.46 336.615019 -145.59093
                   -191.02409 264.997928 -110.25379 -154.74414 77618.4578 600658.888 -678277.35 .153998545 .285342918 -.43934146
                   .160713E-6 -.13801E-6 -.15598E-7        0.0   460.7277   2.423232   3.047548   10.06578   12.65911     .24074
                         380.    .040031    .028851    .296876    .395337   1.402523    .016653    .006514   638.2791   12.76558
                          1.0        0.0        0.0        0.0        0.0
   3500     .0035   148.14929 -109.56781 -38.581476  148.14929 -109.56781 -38.581476  194613.16 233460.612 -428073.77        0.0
                          0.0        0.0 186.864335 -141.50379 -45.360543 194607.888 233465.353 -428073.24 328.368128 -96.143249
                   -232.22488 257.717105 -70.986339 -186.73077 -38847.452 661534.385 -622686.93 .086650849 .335418865 -.42206971
                   .147197E-6 -.11063E-6 -.43663E-7        0.0   460.7277   2.423232   3.047548   10.06578   12.65911     .24074
                         380.    .040031    .028851    .296876    .395337   1.402523    .016653    .006514   638.2791   12.76558
                          1.0        0.0        0.0        0.0        0.0
   4000      .004  152.736633   -91.3538 -61.382832 152.736633   -91.3538 -61.382832  132469.03  286825.84 -419294.87        0.0
                          0.0        0.0 193.247228 -118.78771 -74.459514 132463.443 286829.997 -419293.44 312.034941 -44.328199
                   -267.70674 244.090433 -29.970968 -214.11946 -154356.81  706120.71  -551763.9  .01716956 .377235667 -.39440523
                   .152508E-6 -.90867E-7 -.61646E-7        0.0   460.7277   2.423232   3.047548   10.06578   12.65911     .24074
                         380.    .040031    .028851    .296876    .395337   1.402523    .016653    .006514   638.2791   12.76558
                          1.0        0.0        0.0        0.0        0.0
   4500     .0045  153.560777 -70.889192 -82.671585 153.560777 -70.889192 -82.671585 67063.0385  333128.48 -400191.52        0.0
                          0.0        0.0 194.871577 -93.146609 -101.72497 67057.3081 333131.936 -400189.24 288.018186 8.57835862
                   -296.59654 224.449969 11.7823928 -236.23236 -266065.44 733319.999 -467254.56 -.05272532 .409759079 -.35703376
                   .165783E-6 -.72317E-7 -.93482E-7        0.0   460.7277   2.423232   3.047548   10.06578   12.65911     .24074
                         380.    .040031    .028851    .296876    .395337   1.402523    .016653    .006514   638.2791   12.76558
                          1.0        0.0        0.0        0.0        0.0
   5000      .005  150.608481 -48.681429 -101.92705 150.608481 -48.681429 -101.92705 5.82614916 371228.345 -371234.17        0.0
                          0.0        0.0 191.697662 -65.211987 -126.48567 -.45661E-7  371231.06 -371231.06 256.909649 61.2736879
                   -318.18334  199.28991  53.245624 -252.53553 -371222.52 742462.516   -371240. -.12133527 .432199552 -.31086428
                    .16267E-6 -.52008E-7 -.11067E-6        0.0   460.7277   2.423232   3.047548   10.06578   12.65911     .24074
                         380.    .040031    .028851    .296876    .395337   1.402523    .016653    .006514   638.2791   12.76558
                          1.0        0.0        0.0        0.0        0.0
   5500     .0055  143.945033 -25.273629  -118.6714 143.945033 -25.273629  -118.6714 -67051.601 400187.372 -333135.77        0.0
                          0.0        0.0 183.803456   -35.6716 -148.13186 -67057.308 400189.244 -333131.94 219.475056 112.460256
                   -331.93531 169.218662 93.3977748 -262.61644 -467238.97 733323.142 -266084.17 -.18695833 .443998216 -.25703988
                   .148544E-6 -.25184E-7 -.12336E-6        0.0   460.7277   2.423232   3.047548   10.06578   12.65911     .24074
                         380.    .040031    .028851    .296876    .395337   1.402523    .016653    .006514   638.2791   12.76558
                          1.0        0.0        0.0        0.0        0.0
   6000      .006   133.73735  -1.243594 -132.49376  133.73735  -1.243594 -132.49376   -132458. 419292.458 -286834.46        0.0
                          0.0        0.0 171.383403  -5.252862 -166.13054 -132463.44  419293.44   -286830. 176.636265 160.877679
                   -337.51394 134.980944 131.250162 -266.23111 -551750.45 706126.919 -154376.47 -.24797261 .444861548 -.19688893
                   .149266E-6 -.12469E-8 -.14379E-6        0.0   460.7277   2.423232   3.047548   10.06578   12.65911     .24074
                         380.    .040031    .028851    .296876    .395337   1.402523    .016653    .006514   638.2791   12.76558
                          1.0        0.0        0.0        0.0        0.0
   6500     .0065  120.236598 22.8170684 -143.05367 120.236598 22.8170684 -143.05367 -194602.82 428073.165 -233470.34        0.0
                          0.0        0.0 154.740425 25.2966664 -180.03709 -194607.89  428073.24 -233465.35 129.443758 205.333757
                   -334.77752   97.41953 165.870735 -263.29027 -622675.99 661543.507 -38867.518 -.30288018 .434770514 -.13189033
                   .131613E-6 .254979E-7 -.16067E-6        0.0   460.7277   2.423232   3.047548   10.06578   12.65911     .24074
                         380.    .040031    .028851    .296876    .395337   1.402523    .016653    .006514   638.2791   12.76558
                          1.0        0.0        0.0        0.0        0.0
   7000      .007  103.775373 46.3158236  -150.0912 103.775373 46.3158236  -150.0912 -251955.88  426313.29 -174357.41        0.0
                          0.0        0.0 134.293131 55.2203582 -189.51349 -251960.44 426312.457 -174352.02 79.0727725 244.733847
                   -323.80662 57.4595495  196.40702 -253.86657 -678269.17 600670.699 77598.4734 -.35033075 .413974443 -.06364369
                    .10947E-6 .473411E-7 -.17101E-6        0.0   460.7277   2.423232   3.047548   10.06578   12.65911     .24074
                         380.    .040031    .028851    .296876    .395337   1.402523    .016653    .006514   638.2791   12.76558
                          1.0        0.0        0.0        0.0        0.0
   7500     .0075  84.7587232 68.6741946 -153.43292 84.7587232 68.6741946 -153.43292 -303104.95 414056.168 -110951.22        0.0
                          0.0        0.0  110.53524 83.7862631  -194.3215 -303108.89 414054.446 -110945.55  26.748977 278.107766
                   -304.85674 16.0845286 222.107112 -238.19164 -717161.12 525007.384 192153.735 -.38915487 .382984877 .006169994
                   .835994E-7 .757919E-7 -.17362E-6        0.0   460.7277   2.423232   3.047548   10.06578   12.65911     .24074
                         380.    .040031    .028851    .296876    .395337   1.402523    .016653    .006514   638.2791   12.76558
                          1.0        0.0        0.0        0.0        0.0
   8000      .008  63.6550543 89.3415679 -152.99662 63.6550543 89.3415679 -152.99662 -346790.57 391603.608 -44813.038        0.0
                          0.0        0.0 84.0567789 110.288486 -194.34527  -346793.8  391601.04 -44807.245 -26.231707 304.633751
                   -278.40204 -25.686514  242.33819 -216.65168 -738394.18 436416.646 301977.533 -.41839671 .342564952 .075831754
                    .63431E-7 .887276E-7 -.16637E-6        0.0   460.7277   2.423232   3.047548   10.06578   12.65911     .24074
                         380.    .040031    .028851    .296876    .395337   1.402523    .016653    .006514   638.2791   12.76558
                          1.0        0.0        0.0        0.0        0.0
   8500     .0085  40.9810303 107.810525 -148.79156 40.9810303 107.810525 -148.79156 -381937.03 359508.457  22428.576        0.0
                          0.0        0.0 55.5082022 134.075221 -189.58342 -381939.48 359505.117 22434.3679 -78.567019 323.658644
                   -245.09163 -66.829495  256.60208 -189.77259 -741445.49 337079.881 404365.609 -.43733396 .293708814 .143625145
                   .436636E-7 .118786E-6 -.16244E-6        0.0   460.7277   2.423232   3.047548   10.06578   12.65911     .24074
                         380.    .040031    .028851    .296876    .395337   1.402523    .016653    .006514   638.2791   12.76558
                          1.0        0.0        0.0        0.0        0.0
   9000      .009  17.3028352  123.62239 -140.92522 17.3028352  123.62239 -140.92522 -407678.98 318561.033 89117.9426        0.0
                          0.0        0.0   25.59287 154.560559 -180.15343 -407680.56 318556.985  89123.572 -128.96769 334.713988
                    -205.7463 -106.31955 264.547615 -158.22806 -726240.01 229443.091 496796.918 -.44550795 .237623255 .207884695
                   .170417E-7 .133871E-6  -.1367E-6        0.0   460.7277   2.423232   3.047548   10.06578   12.65911     .24074
                         380.    .040031    .028851    .296876    .395337   1.402523    .016653    .006514   638.2791   12.76558
                          1.0        0.0        0.0        0.0        0.0
   9500     .0095  -6.8030158 136.391049 -129.58803 -6.8030158 136.391049 -129.58803  -423382.5 269769.573 153612.923        0.0
                          0.0        0.0 -4.9527378 171.240149 -166.28741 -423383.18 269764.922 153618.258 -176.19289 337.527561
                   -161.33467 -143.19406 265.979082 -122.78502 -693152.07  116156.65 576995.419 -.44270612 .175683656 .267022459
                   -.67447E-8 .142392E-6 -.14008E-6        0.0   460.7277   2.423232   3.047548   10.06578   12.65911     .24074
                         380.    .040031    .028851    .296876    .395337   1.402523    .016653    .006514   638.2791   12.76558
                          1.0        0.0        0.0        0.0        0.0
  10000       .01  -30.741375 145.801321 -115.05995 -30.741375 145.801321 -115.05995 -428660.92 214335.486 214325.439        0.0
                          0.0        0.0 -35.376382 183.703234 -148.32685 -428660.71 214330.353 214330.352 -219.07962 332.030086
                   -112.95047  -176.5427 260.861267 -84.318571 -642996.41 10.0470077 642986.363 -.42900788 .109420389 .319587487
                   -.30591E-7 .164941E-6 -.12369E-6        0.0   460.7277   2.423232   3.047548   10.06578   12.65911     .24074
                         380.    .040031    .028851    .296876    .395337   1.402523    .016653    .006514   638.2791   12.76558
                          1.0        0.0        0.0        0.0        0.0
  10500     .0105  -53.923249 151.621715 -97.698466 -53.923249 151.621715 -97.698466 -423384.31 153623.754 269760.557        0.0
                          0.0        0.0 -64.928961 191.642944 -126.71398 -423383.18 153618.258 269764.922 -256.57191 318.356927
                   -61.785022 -205.54496 249.320181 -43.775217 -577008.07  -116136.8 693144.869 -.40474503 .040462321 .364282708
                   -.53319E-7 .154288E-6 -.10808E-6        0.0   460.7277   2.423232   3.047548   10.06578   12.65911     .24074
                         380.    .040031    .028851    .296876    .395337   1.402523    .016653    .006514   638.2791   12.76558
                          1.0        0.0        0.0        0.0        0.0
  11000      .011  -75.777435 153.708721 -77.931285 -75.777435 153.708721 -77.931285 -407682.57 89129.2938 318553.274        0.0
                          0.0        0.0 -92.884786 194.864777 -101.97999 -407680.56  89123.572 318556.985 -287.74956 296.844767
                   -9.0952044 -229.48616 231.640006 -2.1538503 -496811.86 -229423.98 726235.841 -.37051504 -.02949255 .400007589
                   -.78373E-7  .17205E-6 -.79461E-7        0.0   460.7277   2.423232   3.047548   10.06578   12.65911     .24074
                         380.    .040031    .028851    .296876    .395337   1.402523    .016653    .006514   638.2791   12.76558
                          1.0        0.0        0.0        0.0        0.0
  11500     .0115  -95.765519 152.010802 -56.245282 -95.765519 152.010802 -56.245282 -381942.32 22440.1724 359502.149        0.0
                          0.0        0.0 -118.54966  193.28648  -74.73682 -381939.48 22434.3679 359505.117 -311.83614   268.0233
                   43.8128405 -247.77632 208.256084  39.520237 -404382.49 -337061.98 741444.471 -.32716172 -.09872123 .425882945
                   -.94986E-7 .145836E-6 -.57949E-7        0.0   460.7277   2.423232   3.047548   10.06578   12.65911     .24074
                         380.    .040031    .028851    .296876    .395337   1.402523    .016653    .006514   638.2791   12.76558
                          1.0        0.0        0.0        0.0        0.0
  12000      .012  -113.39565 146.569927 -33.174279 -113.39565 146.569927 -33.174279 -346797.39   -44801.5 391598.889        0.0
                          0.0        0.0 -141.29726 186.949738 -45.652475  -346793.8 -44807.245  391601.04   -328.247 232.602213
                   95.6447888 -259.96558 179.744206 80.2213694 -301995.89 -436400.39 738396.279 -.27575297 -.16551887  .44127184
                   -.11615E-6 .160131E-6 -.36873E-7        0.0   460.7277   2.423232   3.047548   10.06578   12.65911     .24074
                         380.    .040031    .028851    .296876    .395337   1.402523    .016653    .006514   638.2791   12.76558
                          1.0        0.0        0.0        0.0        0.0
  12500     .0125  -128.23361 137.520017 -9.2864121 -128.23361 137.520017 -9.2864121 -303113.15 -110940.01 414053.165        0.0
                          0.0        0.0 -160.56574 176.009713 -15.443972 -303108.89 -110945.55 414054.446 -336.57545 191.453685
                   145.121768 -265.75362 146.806429 118.947193 -192173.14 -524993.18  717166.32 -.21755418 -.22824094 .445795113
                   -.14248E-6 .153722E-6 -.94842E-8        0.0   460.7277   2.423232   3.047548   10.06578   12.65911     .24074
                         380.    .040031    .028851    .296876    .395337   1.402523    .016653    .006514   638.2791   12.76558
                          1.0        0.0        0.0        0.0        0.0
  13000      .013  -139.91576 125.084776 14.8309879 -139.91576 125.084776 14.8309879 -251965.27 -174346.81 426312.081        0.0
                          0.0        0.0 -175.88052 160.735726 15.1447923 -251960.44 -174352.02 426312.457 -336.61624 145.590933
                    191.02531 -265.00054 110.253788 154.746751 -77618.468 -600658.89 678277.356 -.15399953 -.28534243 .439341958
                   -.13605E-6  .12644E-6 .149312E-7        0.0   460.7277   2.423232   3.047548   10.06578   12.65911     .24074
                         380.    .040031    .028851    .296876    .395337   1.402523    .016653    .006514   638.2791   12.76558
                          1.0        0.0        0.0        0.0        0.0
  13500     .0135  -148.14922 109.567782 38.5814425 -148.14922 109.567782 38.5814425 -194613.14 -233460.62 428073.765        0.0
                          0.0        0.0 -186.86438 141.503816 45.3605667 -194607.89 -233465.35  428073.24  -328.3682 96.1432496
                    232.22495 -257.71701 70.9863392 186.730667 38847.4757 -661534.38 622686.909  -.0866514 -.33541859 .422069984
                   -.14336E-6 .120425E-6 .371547E-7        0.0   460.7277   2.423232   3.047548   10.06578   12.65911     .24074
                         380.    .040031    .028851    .296876    .395337   1.402523    .016653    .006514   638.2791   12.76558
                          1.0        0.0        0.0        0.0        0.0
  14000      .014   -152.7369 91.3539331 61.3829649  -152.7369 91.3539331 61.3829649 -132469.03 -286825.84  419294.87        0.0
                          0.0        0.0 -193.24722 118.787712 74.4595126 -132463.44   -286830.  419293.44 -312.03494 44.3281995
                   267.706737 -244.09083 29.9709682 214.119863  154356.81 -706120.71 551763.899  -.0171701  -.3772354 .394405495
                   -.16931E-6 .991644E-7 .630498E-7        0.0   460.7277   2.423232   3.047548   10.06578   12.65911     .24074
                         380.    .040031    .028851    .296876    .395337   1.402523    .016653    .006514   638.2791   12.76558
                          1.0        0.0        0.0        0.0        0.0
  14500     .0145  -153.56316 70.8903846 82.6727733 -153.56316 70.8903846 82.6727733 -67063.072 -333128.46 400191.535        0.0
                          0.0        0.0 -194.87163  93.146638 101.724996 -67057.308 -333131.94 400189.244 -288.01827  -8.578358
                    296.59663 -224.45354 -11.782389 236.235931 266065.392   -733320. 467254.607 .052734649 -.40976375   .3570291
                   -.14796E-6 .678451E-7 .801156E-7        0.0   460.7277   2.423232   3.047548   10.06578   12.65911     .24074
                         380.    .040031    .028851    .296876    .395337   1.402523    .016653    .006514   638.2791   12.76558
                          1.0        0.0        0.0        0.0        0.0
  % % % % % %   Suspended simulation;  plot data space exhausted;  SPY SPACE is required.   LIMBUF =  840000.
  % % % % % %   Suspended simulation;  plot data space exhausted;  SPY SPACE is required.   LIMBUF =  840000.
  +++  Time-sharing disabled.   Send  user-keyed interrupt to silence alarm.
   Current values.  INDBUF  INDBEG  LIMBUF  MFLUSH  NUMDCD  KCARD1  KCARD2
                    839994      50  840000    1000     230       1     231
Plot timespan now in memory (in sec) = 0.00000000E+00   1.49990000E-02
   ++++  Begin plot-data copy from memory to disk.   MFLUSH, INDBUF, N4, Tbeg,  Tend = 1001  839994       1  -1.00000E+00
1.00000E+19
  15000      .015  -150.60834 48.6813579 101.926981 -150.60834 48.6813579 101.926981 -5.8004434 -371228.36 371234.158        0.0
                          0.0        0.0 -191.69802 65.2121616 126.485855 -.61533E-6 -371231.06  371231.06 -256.91018 -61.273694
                   318.183872  -199.2897 -53.245623  252.53532 371222.557 -742462.52 371239.959 .121339858 -.43220184 .310861981
                   -.15162E-6 .492399E-7 .109496E-6        0.0   460.7277   2.423232   3.047548   10.06578   12.65911     .24074
                         380.    .040031    .028851    .296876    .395337   1.402523    .016653    .006514   638.2791   12.76558
                          1.0        0.0        0.0        0.0        0.0
  15500     .0155  -143.94507  25.273647  118.67142 -143.94507  25.273647  118.67142 67051.6151 -400187.38 333135.764        0.0
                          0.0        0.0 -183.80336  35.671554 148.131809 67057.3081 -400189.24 333131.936 -219.47492 -112.46026
                   331.935172 -169.21871 -93.397773 262.616488 467238.994 -733323.14 266084.149 .186957482 -.44399779 .257040306
                   -.14179E-6 .266821E-7 .122214E-6        0.0   460.7277   2.423232   3.047548   10.06578   12.65911     .24074
                         380.    .040031    .028851    .296876    .395337   1.402523    .016653    .006514   638.2791   12.76558
                          1.0        0.0        0.0        0.0        0.0
  16000      .016  -133.73744 1.24364092 132.493802 -133.73744 1.24364092 132.493802 132457.996 -419292.46 286834.461        0.0
                          0.0        0.0 -171.38376 5.25303985 166.130719 132463.443 -419293.44 286829.997  -176.6368 -160.87768
                   337.514478 -134.98108 -131.25016 266.231246 551750.454 -706126.92 154376.465    .247972 -.44486124 .196889241
                   -.13725E-6  .12299E-8 .137792E-6        0.0   460.7277   2.423232   3.047548   10.06578   12.65911     .24074
                         380.    .040031    .028851    .296876    .395337   1.402523    .016653    .006514   638.2791   12.76558
                          1.0        0.0        0.0        0.0        0.0
  16500     .0165   -120.2367 -22.817015  143.05372  -120.2367 -22.817015  143.05372 194602.823 -428073.17 233470.342        0.0
                          0.0        0.0  -154.7433  -25.29523  180.03853 194607.888 -428073.24 233465.353 -129.44807 -205.33376
                    334.78183 -97.419689 -165.87073 263.290424 622675.988 -661543.51 38867.5188 .302880373 -.43477061 .131890236
                   -.12447E-6 -.25496E-7  .13574E-6        0.0   460.7277   2.423232   3.047548   10.06578   12.65911     .24074
                         380.    .040031    .028851    .296876    .395337   1.402523    .016653    .006514   638.2791   12.76558
                          1.0        0.0        0.0        0.0        0.0
  17000      .017  -103.77536  -46.31583 150.091189 -103.77536  -46.31583 150.091189 251955.863 -426313.28 174357.418        0.0
                          0.0        0.0 -134.29297 -55.220436 189.513405 251960.441 -426312.46 174352.016 -79.072532 -244.73384
                   323.806374 -57.459528 -196.40702 253.866547 678269.145  -600670.7 -77598.446 .350332902 -.41397552 .063642621
                   -.11315E-6  -.4967E-7 .155705E-6        0.0   460.7277   2.423232   3.047548   10.06578   12.65911     .24074
                         380.    .040031    .028851    .296876    .395337   1.402523    .016653    .006514   638.2791   12.76558
                          1.0        0.0        0.0        0.0        0.0
  17500     .0175  -84.758569 -68.674271  153.43284 -84.758569 -68.674271  153.43284 303104.948 -414056.17 110951.218        0.0
                          0.0        0.0 -110.53584 -83.785963 194.321801 303108.891 -414054.45 110945.554 -26.749875 -278.10776
                    304.85764 -16.084298 -222.10711  238.19141 717161.114 -525007.38 -192153.73 .389152533 -.38298371 -.00616882
                    -.9532E-7 -.69183E-7 .164509E-6        0.0   460.7277   2.423232   3.047548   10.06578   12.65911     .24074
                         380.    .040031    .028851    .296876    .395337   1.402523    .016653    .006514   638.2791   12.76558
                          1.0        0.0        0.0        0.0        0.0
  18000      .018  -63.655135 -89.341528 152.996663 -63.655135 -89.341528 152.996663 346790.571 -391603.61 44813.0372        0.0
                          0.0        0.0 -84.056965 -110.28839 194.345358 346793.795 -391601.04 44807.2448 26.2314287 -304.63375
                   278.402323 25.6863926 -242.33819 216.651799  738394.18 -436416.65 -301977.53  .41839678 -.34256499 -.07583179
                   -.68751E-7 -.96873E-7 .172731E-6        0.0   460.7277   2.423232   3.047548   10.06578   12.65911     .24074
                         380.    .040031    .028851    .296876    .395337   1.402523    .016653    .006514   638.2791   12.76558
                          1.0        0.0        0.0        0.0        0.0
  18500     .0185  -40.983937 -107.80908 148.793017 -40.983937 -107.80908 148.793017 381937.057 -359508.47 -22428.588        0.0
                          0.0        0.0 -55.508321 -134.07516 189.583483 381939.485 -359505.12 -22434.368 78.5668412 -323.65864
                   245.091803 66.8251442  -256.6021 189.776954 741445.526 -337079.88 -404365.65 .437335721 -.29370969 -.14362603
                   -.43035E-7 -.11323E-6 .149157E-6        0.0   460.7277   2.423232   3.047548   10.06578   12.65911     .24074
                         380.    .040031    .028851    .296876    .395337   1.402523    .016653    .006514   638.2791   12.76558
                          1.0        0.0        0.0        0.0        0.0
  19000      .019  -17.304603  -123.6215 140.926106 -17.304603  -123.6215 140.926106  407678.98 -318561.04 -89117.945        0.0
                          0.0        0.0 -25.600461 -154.55676 180.157222 407680.557 -318556.98 -89123.572   128.9563 -334.71398
                   205.757683 106.316899 -264.54761  158.23071 726240.016 -229443.09 -496796.93 .445507029 -.23762279 -.20788424
                   -.17164E-7 -.13494E-6 .137879E-6        0.0   460.7277   2.423232   3.047548   10.06578   12.65911     .24074
                         380.    .040031    .028851    .296876    .395337   1.402523    .016653    .006514   638.2791   12.76558
                          1.0        0.0        0.0        0.0        0.0
  19500     .0195   6.8025876 -136.39083 129.588247  6.8025876 -136.39083 129.588247 423382.497 -269769.57 -153612.92        0.0
                          0.0        0.0 4.95292125 -171.24024 166.287319  423383.18 -269764.92 -153618.26 176.193161 -337.52756
                   161.334398 143.193422 -265.97908  122.78566 693152.071 -116156.65 -576995.42 .442707925 -.17568456 -.26702336
                    .70175E-8 -.14121E-6 .142179E-6        0.0   460.7277   2.423232   3.047548   10.06578   12.65911     .24074
                         380.    .040031    .028851    .296876    .395337   1.402523    .016653    .006514   638.2791   12.76558
                          1.0        0.0        0.0        0.0        0.0
  20000       .02  30.7414125 -145.80134 115.059927 30.7414125 -145.80134 115.059927 428660.934 -214335.49 -214325.44        0.0
                          0.0        0.0   35.37671  -183.7034 148.326688 428660.705 -214330.35 -214330.35 219.080108 -332.03009
                   112.949978 176.542752 -260.86127 84.3185146 642996.424 -10.047009 -642986.38 .429008038 -.10942047 -.31958757
                   .329118E-7 -.14275E-6 .120504E-6        0.0   460.7277   2.423232   3.047548   10.06578   12.65911     .24074
                         380.    .040031    .028851    .296876    .395337   1.402523    .016653    .006514   638.2791   12.76558
                          1.0        0.0        0.0        0.0        0.0
  20500     .0205  53.9232289 -151.62171 97.6984762 53.9232289 -151.62171 97.6984762 423384.313 -153623.76 -269760.56        0.0
                          0.0        0.0 64.9289501 -191.64294 126.713989  423383.18 -153618.26 -269764.92 256.571889 -318.35693
                   61.7850386 205.544934 -249.32018 43.7752473 577008.068 116136.803 -693144.87  .40474445 -.04046203 -.36428242
                   .531555E-7 -.14738E-6  .10134E-6        0.0   460.7277   2.423232   3.047548   10.06578   12.65911     .24074
                         380.    .040031    .028851    .296876    .395337   1.402523    .016653    .006514   638.2791   12.76558
                          1.0        0.0        0.0        0.0        0.0
  21000      .021  75.7773135 -153.70866 77.9313461 75.7773135 -153.70866 77.9313461 407682.567 -89129.293 -318553.27        0.0
                          0.0        0.0 92.8827495 -194.86376 101.981008 407680.557 -89123.572 -318556.98 287.746507 -296.84477
                   9.09825883 229.485973 -231.64001 2.15403257  496811.86  229423.98 -726235.84 .370514821 .029492659 -.40000748
                   .804308E-7 -.15872E-6  .78282E-7        0.0   460.7277   2.423232   3.047548   10.06578   12.65911     .24074
[...]
                         380.    .040031    .028851    .296876    .395337   1.402523    .016653    .006514   638.2791   12.76558
                          1.0        0.0        0.0        0.0        0.0
 113000      .113  -263144.58 -170538.92 433683.504 -263144.58 -170538.92 433683.504 -263144.58 -170538.92 433683.505        0.0
                          0.0        0.0 -372693.63 -122988.82 495682.456 -251960.44 -174352.02 426312.457 -249704.81 -618671.28
                   868376.089  -92605.66 -604222.43 696828.086 -92605.658 -604222.43 696828.086 358.274825 -822.60648 464.331656
                   -.27081E-3 -.19517E-3 .466079E-3        0.0   460.7277   2.423232   3.047548   10.06578   12.65911     .24074
                         380.    .040031    .028851    .296876    .395337   1.402523    .016653    .006514   638.2791   12.76558
                          1.0        0.0        0.0        0.0        0.0
 113500     .1135  -221129.01 -226444.25 447573.265 -221129.01 -226444.25 447573.265 -221129.01 -226444.25 447573.265        0.0
                          0.0        0.0 -385731.71 -166995.48 552727.195 -194607.89 -233465.35  428073.24 -218736.23 -719722.68
                   938458.905 5315.23956 -674017.52 668702.278  5315.2429 -674017.52 668702.277 730.504851 -942.20039 211.695536
                   -.24557E-3 -.26274E-3 .508249E-3        0.0   460.7277   2.423232   3.047548   10.06578   12.65911     .24074
                         380.    .040031    .028851    .296876    .395337   1.402523    .016653    .006514   638.2791   12.76558
                          1.0        0.0        0.0        0.0        0.0
 114000      .114  -128744.02 -293042.62  421786.64 -128744.02 -293042.62  421786.64 -128744.02 -293042.62  421786.64        0.0
                          0.0        0.0 -324066.67 -243680.91 567747.576 -132463.44   -286830.  419293.44 -80385.764 -811428.48
                   891814.245 164298.605 -714829.26 550530.657 164298.608 -714829.26 550530.657 503.836378 -739.65304 235.816666
                    -.1521E-3  -.3055E-3 .515848E-3        0.0   460.7277   2.423232   3.047548   10.06578   12.65911     .24074
                         380.    .040031    .028851    .296876    .395337   1.402523    .016653    .006514   638.2791   12.76558
                          1.0        0.0        0.0        0.0        0.0
 114500     .1145  -118204.82 -314012.29 432217.107 -118204.82 -314012.29 432217.107 -118204.82 -314012.29 432217.107        0.0
                          0.0        0.0 -297998.12 -294531.95 592530.071 -67057.308 -333131.94 400189.244 -3466.1716 -887062.02
                   890528.193 195807.468 -746229.39 550421.926 195807.471  -746229.4 550421.925 735.235144 -781.12471  45.889571
                   -.13847E-3 -.33922E-3 .506699E-3        0.0   460.7277   2.423232   3.047548   10.06578   12.65911     .24074
                         380.    .040031    .028851    .296876    .395337   1.402523    .016653    .006514   638.2791   12.76558
                          1.0        0.0        0.0        0.0        0.0
 115000      .115  -36084.294 -364264.64 400348.936 -36084.294 -364264.64 400348.936 -36084.292 -364264.64 400348.936        0.0
                          0.0        0.0 -174540.81 -383101.83 557642.646 .127058E-4 -371231.06  371231.06 208561.019 -940744.48
                   732183.459 328180.349 -764613.58  436433.23 328180.353 -764613.58 436433.227 1123.36042 -852.50156 -270.85886
                   -.42686E-4 -.40828E-3 .465572E-3        0.0   460.7277   2.423232   3.047548   10.06578   12.65911     .24074
                         380.    .040031    .028851    .296876    .395337   1.402523    .016653    .006514   638.2791   12.76558
                          1.0        0.0        0.0        0.0        0.0
 115500     .1155   32204.201  -398362.5 366158.296  32204.201  -398362.5 366158.296 32204.2039  -398362.5 366158.295        0.0
                          0.0        0.0  -81966.48 -449286.42 531252.904 67057.3081 -400189.24 333131.936 367319.943 -980539.33
                   613219.384 430566.698 -764520.79 333954.095 430566.703 -764520.79 333954.091 1467.13847 -848.88698 -618.25149
                   .373207E-4 -.43241E-3 .413299E-3        0.0   460.7277   2.423232   3.047548   10.06578   12.65911     .24074
                         380.    .040031    .028851    .296876    .395337   1.402523    .016653    .006514   638.2791   12.76558
                          1.0        0.0        0.0        0.0        0.0
 116000      .116  95806.9905 -418613.05 322806.064 95806.9905 -418613.05 322806.064 95806.9937 -418613.06 322806.062        0.0
                          0.0        0.0 11792.5439 -495181.46 483388.919 132463.443 -419293.44 286829.997 506974.007 -978570.38
                   471596.375 514420.045 -741419.12 226999.073 514420.049 -741419.12 226999.068 1594.00671 -703.23304 -890.77366
                   .106842E-3 -.46321E-3 .341833E-3        0.0   460.7277   2.423232   3.047548   10.06578   12.65911     .24074
                         380.    .040031    .028851    .296876    .395337   1.402523    .016653    .006514   638.2791   12.76558
                          1.0        0.0        0.0        0.0        0.0
 116500     .1165  160905.996 -429496.15 268590.155 160905.996 -429496.15 268590.155 160905.999 -429496.15 268590.153        0.0
                          0.0        0.0 39926.2897 -506314.18 466387.894 194607.888 -428073.24 233465.353 546240.473 -972702.08
                   426461.604 590402.148 -698086.31 107684.159 590402.152 -698086.31 107684.154 1611.54052 -496.92824 -1114.6123
                   .202309E-3 -.51085E-3  .33775E-3        0.0   460.7277   2.423232   3.047548   10.06578   12.65911     .24074
                         380.    .040031    .028851    .296876    .395337   1.402523    .016653    .006514   638.2791   12.76558
                          1.0        0.0        0.0        0.0        0.0
 117000      .117  241769.382 -439362.98 197593.599 241769.382 -439362.98 197593.599 241769.385 -439362.98 197593.596        0.0
                          0.0        0.0 225199.945 -581043.15   355843.2 251960.441 -426312.46 174352.016 806243.091 -936886.35
                   130643.255 681132.362 -636956.58 -44175.783 681132.365 -636956.58 -44175.788 1494.49721 -218.62997 -1275.8672
                   .277447E-3 -.46885E-3 .220492E-3        0.0   460.7277   2.423232   3.047548   10.06578   12.65911     .24074
                         380.    .040031    .028851    .296876    .395337   1.402523    .016653    .006514   638.2791   12.76558
                          1.0        0.0        0.0        0.0        0.0
 117500     .1175  315273.715 -439591.69 124317.976 315273.715 -439591.69 124317.976 315273.718 -439591.69 124317.973        0.0
                          0.0        0.0 419803.006  -637276.2 217473.193 303108.891 -414054.45 110945.554 .1057079E7 -854749.39
                   -202329.81 754865.406 -563909.67 -190955.74 754865.409 -563909.66 -190955.75 1538.36505 -34.458405 -1503.9066
                   .370331E-3 -.48018E-3 .139043E-3        0.0   460.7277   2.423232   3.047548   10.06578   12.65911     .24074
                         380.    .040031    .028851    .296876    .395337   1.402523    .016653    .006514   638.2791   12.76558
                          1.0        0.0        0.0        0.0        0.0
 118000      .118  346629.208 -406395.12 59765.9107 346629.208 -406395.12 59765.9107 346629.211 -406395.12 59765.9077        0.0
                          0.0        0.0 504975.443 -614413.74 109438.301 346793.795 -391601.04 44807.2447 .1119389E7 -723852.04
                   -395537.14 753024.327 -466161.03  -286863.3 753024.329 -466161.03  -286863.3 1114.16129 361.005562 -1475.1669
                   .377657E-3 -.44009E-3 .696182E-4        0.0   460.7277   2.423232   3.047548   10.06578   12.65911     .24074
                         380.    .040031    .028851    .296876    .395337   1.402523    .016653    .006514   638.2791   12.76558
                          1.0        0.0        0.0        0.0        0.0
 118500     .1185  379866.636 -375201.87 -4664.7704 379866.636 -375201.87 -4664.7704 379866.638 -375201.86 -4664.7738        0.0
                          0.0        0.0 595057.715 -582661.53 -12396.181 381939.485 -359505.12 -22434.368 .1177719E7 -570265.35
                    -607453.9 755068.501 -370537.09 -384531.41 755068.502 -370537.09 -384531.41 1262.01344 445.918578  -1707.932
                   .440059E-3 -.41351E-3 -.55493E-5        0.0   460.7277   2.423232   3.047548   10.06578   12.65911     .24074
                         380.    .040031    .028851    .296876    .395337   1.402523    .016653    .006514   638.2791   12.76558
                          1.0        0.0        0.0        0.0        0.0
 119000      .119  445977.981 -351456.35 -94521.635 445977.981 -351456.35 -94521.635 445977.983 -351456.34 -94521.638        0.0
                          0.0        0.0 661261.904 -528576.93 -132684.97 407680.557 -318556.98 -89123.572 .1189839E7 -395891.96
                   -793946.88 797434.327 -256934.71 -540499.62 797434.327 -256934.71 -540499.62  876.19578 793.141986 -1669.3378
                   .538776E-3 -.41809E-3 -.10614E-3        0.0   460.7277   2.423232   3.047548   10.06578   12.65911     .24074
                         380.    .040031    .028851    .296876    .395337   1.402523    .016653    .006514   638.2791   12.76558
                          1.0        0.0        0.0        0.0        0.0
 119500     .1195  449538.294 -291182.38 -158355.91 449538.294 -291182.38 -158355.91 449538.295 -291182.38 -158355.91        0.0
                          0.0        0.0 693176.444 -453909.83 -239266.62  423383.18 -269764.92 -153618.26 .1147086E7 -214643.21
                   -932443.06 740720.677 -132826.47 -607894.21 740720.676 -132826.47 -607894.21 373.331378  1134.3994 -1507.7308
                     .4859E-3 -.31443E-3 -.17147E-3        0.0   460.7277   2.423232   3.047548   10.06578   12.65911     .24074
                         380.    .040031    .028851    .296876    .395337   1.402523    .016653    .006514   638.2791   12.76558
                          1.0        0.0        0.0        0.0        0.0
  % % % % % %   Suspended simulation;  plot data space exhausted;  SPY SPACE is required.   LIMBUF =  840000.
  % % % % % %   Suspended simulation;  plot data space exhausted;  SPY SPACE is required.   LIMBUF =  840000.
  +++  Time-sharing disabled.   Send  user-keyed interrupt to silence alarm.
   Current values.  INDBUF  INDBEG  LIMBUF  MFLUSH  NUMDCD  KCARD1  KCARD2
                    839994      50  840000    1007     230       1     231
Plot timespan now in memory (in sec) = 1.04985997E-01   1.19985000E-01
   ++++  Begin plot-data copy from memory to disk.   MFLUSH, INDBUF, N4, Tbeg,  Tend = 1008  839994       1  -1.00000E+00
1.00000E+19
 120000       .12   464810.65  -234024.8 -230785.85  464810.65  -234024.8 -230785.85 464810.649  -234024.8 -230785.85        0.0
                          0.0        0.0 688477.428 -352434.57 -336042.85 428660.705 -214330.35 -214330.35 .1040912E7  -16391.72
                   -.102452E7 698835.453 -3238.9574  -695596.5  698835.45  -3238.952  -695596.5 -228.00911 1449.17719 -1221.1681
                   .537269E-3 -.25849E-3 -.27868E-3        0.0   460.7277   2.423232   3.047548   10.06578   12.65911     .24074
                         380.    .040031    .028851    .296876    .395337   1.402523    .016653    .006514   638.2791   12.76558
                          1.0        0.0        0.0        0.0        0.0

Extrema of output variables follow.   Order and column positioning are the same as for the preceding time-step loop output.
Variable maxima :  525579.373 485339.641 491828.575 525579.373 485339.641 491828.575 525579.371 485339.642 491828.578        0.0
                          0.0        0.0 916211.688 752004.449 946080.209 428660.705 428660.703 428660.703  .148553E7 .1189362E7
                   .1685187E7  896499.28 788843.024 .1067395E7 896499.278 788843.023 .1067395E7 2577.71546 1753.21986 2241.36641
                   .670766E-3 .586753E-3 .598341E-3        0.0   460.7277   2.423232   3.047548   10.06578   12.65911     .24074
                         380.    .040031    .028851    .296876    .395337   1.402523    .016653    .006514   638.2791   12.76558
                          1.0        0.0        0.0        0.0        0.0
Times of maxima :     .060389    .086647    .051927    .060389    .086647    .051927    .060389    .086647    .051927        0.0
                          0.0        0.0    .058331    .086654    .053937        0.0    .006667    .113333    .058318    .085612
                      .071736     .07814     .10511    .051899     .07814     .10511    .051899    .054668    .102272    .069448
                      .060393    .086613    .051908        0.0        0.0        0.0        0.0        0.0        0.0        0.0
                          0.0        0.0        0.0        0.0        0.0        0.0        0.0        0.0        0.0        0.0
                          0.0        0.0        0.0        0.0        0.0
Variable minima :  -577524.27 -535390.83  -481743.7 -577524.27 -535390.83  -481743.7 -577524.27 -535390.83 -481743.71        0.0
                          0.0        0.0  -925829.4 -810654.74 -738041.34 -428660.71  -428660.7  -428660.7 -.147483E7 -.133742E7
                   -.135723E7 -915092.55 -800029.47 -845727.78 -915092.55 -800029.47 -845727.78 -2117.5291 -2302.7256 -2202.1757
                   -.73347E-3 -.69336E-3 -.59226E-3        0.0   460.7277   2.423232   3.047548   10.06578   12.65911     .24074
                         380.    .040031    .028851    .296876    .395337   1.402523    .016653    .006514   638.2791   12.76558
                          1.0        0.0        0.0        0.0        0.0
Times of minima :     .051888    .056336    .083199    .051888    .056336    .083199    .051888    .056336    .083199        0.0
                          0.0        0.0    .050859    .055386     .10295        .01    .016667    .103333    .068904     .05444
                      .102882    .069639    .055045    .060397    .069639    .055045    .060397    .085592    .052492    .056148
                      .051916    .056336    .083228        0.0        0.0        0.0        0.0        0.0        0.0        0.0
                          0.0        0.0        0.0        0.0        0.0        0.0        0.0        0.0        0.0        0.0
                          0.0        0.0        0.0        0.0        0.0

Blank card terminating all plot cards.            |BLANK PLOT

Memory storage figures for the preceding, now-completed data case.  -------------------------------  Present   Program
A value of  "-9999"  indicates that no figure is available.         28-Feb-22  20:59:09              figure     limit  (name)
     Size List 1.   Number of electric network nodes.                                                   37      6000  (LBUS)
     Size List 2.   Number of electric network branches.                                                39     10000  (LBRNCH)
     Size List 3.   Number of data values in R, L, C tables.                                            45    192000  (LDATA)
     Size List 4.   Number of electric network sources.                                                  3       900  (LEXCT)
     Size List 5.   Storage for [Y] and triangularized [Y].   No. times =    3     Factors =    66     189    420000  (LYMAT)
     Size List 6.   Number of entries in switch table.                  No. flops = 18                  21      1200  (LSWTCH)
     Size List 7.   Number of distinct ALPHANUMERIC data names plus program SPY variables.              25     15000  (LSIZE7)
     Size List 8.   History points of distributed lines.                                              6705    120000  (LPAST)
     Size List 9.   Number of nonlinear elements.                                                        0      2250  (LNONL)
     Size List 10.  Points of nonlinear characteristics.                                                 0      3800  (LCHAR)
     Size List 11.  Number of Type-59 S.M. outputs.                                                      0       720  (LSMOUT)
     Size List 12.  Total number of EMTP output variables.                                              55      2000  (LSIZ12)
     Size List 13.  Working space for batch/SPY plotting.                                            -9999     72800  (LSIZ13)
     Size List 14.  S.M./U.M. connections to TACS.                                                   -9999       510  (LBSTAC)
     Size List 15.  Character storage in bytes for MODELS.                                            3298     90000  (LCTACS)
     Size List 16.  Total number of Type-59 S.M. masses.                                                 0       800  (LIMASS)
     Size List 17.  Number of Type-59 Synchronous machines.                                              0        90  (LSYN)
     Size List 18.  Branch and switch power/energy outputs.                                              0       254  (MAXPE)
     Size List 19.  Total floating-point TACS table space.                                              23    120000  (LTACST)
     Size List 20.  Non-copied recursive convolution data.                                               0    100000  (LFSEM)
     Size List 21.  Total modal/phase [T] matrix storage.                                                9      3000  (LFD)
     Size List 22.  Total recursive convolution history.                                                 0     15000  (LHIST)
     Size List 23.  Giant vectors for renumbering, phasors;  also extrema accumulation.                  93    192000  (LSIZ23)
     Size List 24.  Peak phases of compensation for data.                                                0       120  (LCOMP)
     Size List 25.  Total table space for all U.M usage.                                             -9999     45000  (LSPCUM)
     Size List 26.  Square of max number of coupled phases.                                              9    260000  (LSIZ26)
     Size List 27.  Maximum number of MODELS top variables.                                             44       600  (LSIZ27)
     Size List 28.  MODELS.  Total work space is divided into INTEGER and REAL.  1st, REAL:           1780    210000  (LRTACS)
                             Second  and last,  statistics for INTEGER work space.                    6838         0  (LITACS)
     Size List 29.  RAM disk used by "TAPSAV" table saving (limit is "LABCOM" size LTLABL).          -9999       600  (LSIZ29)
     Size List 30.  Taku Noda frequency-dependent circuits.                                              0        19  (LSIZ30)
Timing figures characterizing central processor (CP) solution speed.  ----------------------------   CP sec  Wait sec  Real sec
     Data input time (through blank card ending branches) ....                                       0.000     0.000     0.000
     Node renumbering and phasor solution  ....                                                      0.031     0.000     0.031
     After phasor solution, but before time-step loop  ....                                          0.000     0.000     0.000
     Integration of equations (time-step loop)  ....                                                 0.953     0.000     0.953
     Plotting or STATISTICS termination overlays ....                                                0.016     0.000     0.016
                                                                                                    ---------------------------
                                                                                          Totals      1.000     0.000     1.000

