   ---   236   cards of disk file read into card cache cells  1   onward.
 Comment card is ignored.      |C   LBUS  LBRNCH   LDATA   LEXCT   LYMAT  LSWTCH
 Limit CIDEAL cards =   200    |CARDS        200 { Limit of CIDEAL will be 2 mor
 1st card (Lists  1-10).       |    6000   10000  192000     900  420000    120
 Comment card is ignored.      |C LSMOUT  LSIZ12  LSIZ13  LBSTAC  LCTACS  LIMASS
 2nd card (Lists 11-20).       |     720    2000   72800     510   90000     80
 Comment card is ignored.      |C    LFD   LHIST  LSIZ23   NCOMP  LSPCUM  LSIZ26
 3rd card (Lists 21-30).       |    3000   15000  192000     120   45000  26000
 4th card (Lists 31-32).       |     200     300     { Optional card for Lists
 Comment card is ignored.      |C  LWORK  LMARTI
 Supplemental offsets.         |  840000     742
 <===> Done with  "/"-card sorting by data class.    Remember that the source file appears different from interpreted input data.
Alternative Transients Program (ATP),  GNU Linux or DOS.  All rights reserved by Can/Am user group of Portland, Oregon, USA.
 Date (dd-mth-yy) and time of day (hh.mm.ss) = 28-Feb-22  19:59:32   Name of disk plot file is  draw6.3\bernal\energizacion4018.pl4
Consult the 860-page ATP Rule Book of the Can/Am EMTP User Group in Portland,  Oregon, USA.  Source code date is 12 August 2008.
Total size of LABCOM tables = 10913436 INTEGER words.  31 VARDIM  List Sizes follow:  6002  10K  192K  900  420K  1200  15K
  120K  2250  3800  720  2K  72800  510  90K  800  90  254  120K  100K  3K  15K  192K  120  45K  260K  600  210K  1100  60  200
--------------------------------------------------+--------------------------------------------------------------------------------
Descriptive interpretation of input data cards.   |  Input data card images are shown below, all 80 columns, character by character
                                                  0         1         2         3         4         5         6         7         8
                                                  012345678901234567890123456789012345678901234567890123456789012345678901234567890
--------------------------------------------------+--------------------------------------------------------------------------------
Comment card.   NUMDCD = 1.                       |C data:C:\ATP\ATPDRAW6.3\BERNAL\ENERGIZACION4018.ATP
Marker card preceding new EMTP data case.         |BEGIN NEW DATA CASE
Comment card.   NUMDCD = 3.                       |C --------------------------------------------------------
Comment card.   NUMDCD = 4.                       |C Generated by ATPDRAW  febrero, lunes 28, 2022
Comment card.   NUMDCD = 5.                       |C A Bonneville Power Administration program
Comment card.   NUMDCD = 6.                       |C by H. K. Høidalen at SEfAS/NTNU - NORWAY 1994-2016
Comment card.   NUMDCD = 7.                       |C --------------------------------------------------------
Comment card.   NUMDCD = 8.                       |C  dT  >< Tmax >< Xopt >< Copt ><Epsiln>
Misc. data.     1.000E-06   1.200E-01   5.000E+01 |   1.E-6     .12     50.
Misc. data.    500    1  0  1  1  0  0  0  0  0   |     500       1       0       1       1       0       0       0       0
  ///  Warning.  Nonzero XOPT or COPT differs from the power frequency of  6.00000000E+01  Hz.   Did the user really want this?
No TACS data,  but MODELS data begins (next).     |MODELS
      Another ordinary MODELS data card.          |OUTPUT
      Another ordinary MODELS data card.          |  AnVol
      Another ordinary MODELS data card.          |  LONG
      Another ordinary MODELS data card.          |  R0F
      Another ordinary MODELS data card.          |  R1F
      Another ordinary MODELS data card.          |  X0F
      Another ordinary MODELS data card.          |  X1F
      Another ordinary MODELS data card.          |  RDIVX
      Another ordinary MODELS data card.          |  RINSER
      Another ordinary MODELS data card.          |  CLOSE1
      Another ordinary MODELS data card.          |  RPpos
      Another ordinary MODELS data card.          |  RPcero
      Another ordinary MODELS data card.          |  LPpos
      Another ordinary MODELS data card.          |  LPcero
      Another ordinary MODELS data card.          |  CPpos
      Another ordinary MODELS data card.          |  CPcero
      Another ordinary MODELS data card.          |  Xp
      Another ordinary MODELS data card.          |  CR
      Another ordinary MODELS data card.          |  SIMET
      Another ordinary MODELS data card.          |  ENC1
      Another ordinary MODELS data card.          |  ENC2
      Another ordinary MODELS data card.          |  ENC1AS
      Another ordinary MODELS data card.          |  ENC2AS
      Another ordinary MODELS data card.          |MODEL DEFAULT
      Another ordinary MODELS data card.          |DATA AnVol,LONG,R0F,R1F,X0F,X1F,RDIVX,RINSER,CLOSE1,RPpos,RPcero,LPpos,LPcero
      Another ordinary MODELS data card.          |OUTPUT o1,o2,o3, o4, o5, o6, o7, o8, o9, o10, o11, o12, o13
      Another ordinary MODELS data card.          |VAR o1,o2,o3, o4, o5, o6, o7, o8, o9, o10, o11, o12, o13
      Another ordinary MODELS data card.          |INIT
      Another ordinary MODELS data card.          |  o1:=AnVol
      Another ordinary MODELS data card.          |  o2:=LONG
      Another ordinary MODELS data card.          |  o3:=R0F
      Another ordinary MODELS data card.          |  o4:=R1F
      Another ordinary MODELS data card.          |  o5:=X0F
      Another ordinary MODELS data card.          |  O6:=X1F
      Another ordinary MODELS data card.          |  o7:=RDIVX
      Another ordinary MODELS data card.          |  o8:=RINSER
      Another ordinary MODELS data card.          |  o9:=CLOSE1
      Another ordinary MODELS data card.          |  o10:=RPpos
      Another ordinary MODELS data card.          |  o11:=RPcero
      Another ordinary MODELS data card.          |  o12:=LPpos
      Another ordinary MODELS data card.          |  o13:=LPcero
      Another ordinary MODELS data card.          |
      Another ordinary MODELS data card.          |ENDINIT
      Another ordinary MODELS data card.          |EXEC
      Another ordinary MODELS data card.          |ENDEXEC
      Another ordinary MODELS data card.          |ENDMODEL
      Another ordinary MODELS data card.          |MODEL DEFAULT1
      Another ordinary MODELS data card.          |DATA CPpos,CPcero,Xp,CR,SIMET,ENC1,ENC2,ENC1AS,ENC2AS
      Another ordinary MODELS data card.          |OUTPUT o1, o2, o3, o4, o5, o6, o7, o8, o9
      Another ordinary MODELS data card.          |VAR o1, o2, o3, o4, o5, o6, o7, o8, o9
      Another ordinary MODELS data card.          |INIT
      Another ordinary MODELS data card.          |  o1:=CPpos
      Another ordinary MODELS data card.          |  o2:=CPcero
      Another ordinary MODELS data card.          |  o3:=Xp
      Another ordinary MODELS data card.          |  o4:=CR
      Another ordinary MODELS data card.          |  o5:=SIMET
      Another ordinary MODELS data card.          |  o6:=ENC1
      Another ordinary MODELS data card.          |  o7:=ENC2
      Another ordinary MODELS data card.          |  o8:=ENC1AS
      Another ordinary MODELS data card.          |  o9:=ENC2AS
      Another ordinary MODELS data card.          |
      Another ordinary MODELS data card.          |ENDINIT
      Another ordinary MODELS data card.          |EXEC
      Another ordinary MODELS data card.          |ENDEXEC
      Another ordinary MODELS data card.          |ENDMODEL
      Another ordinary MODELS data card.          |USE DEFAULT AS DEFAULT
      Another ordinary MODELS data card.          |DATA
      Another ordinary MODELS data card.          |  AnVol:=      0.0
      Another ordinary MODELS data card.          |  LONG:= 380.0104
      Another ordinary MODELS data card.          |  R0F:= 1.976235
      Another ordinary MODELS data card.          |  R1F:= 2.027646
      Another ordinary MODELS data card.          |  X0F:= 10.63166
      Another ordinary MODELS data card.          |  X1F:= 10.90824
      Another ordinary MODELS data card.          |  RDIVX:= 0.185882
      Another ordinary MODELS data card.          |  RINSER:=     380.
      Another ordinary MODELS data card.          |  CLOSE1:= 0.050669
      Another ordinary MODELS data card.          |  RPpos:= 0.018352
      Another ordinary MODELS data card.          |  RPcero:= 0.333395
      Another ordinary MODELS data card.          |  LPpos:= 0.347825
      Another ordinary MODELS data card.          |  LPcero:=  0.83996
      Another ordinary MODELS data card.          |OUTPUT
      Another ordinary MODELS data card.          |  AnVol:=o1
      Another ordinary MODELS data card.          |  LONG:=o2
      Another ordinary MODELS data card.          |  R0F:=o3
      Another ordinary MODELS data card.          |  R1F:=o4
      Another ordinary MODELS data card.          |  X0F:=o5
      Another ordinary MODELS data card.          |  X1F:=o6
      Another ordinary MODELS data card.          |  RDIVX:=o7
      Another ordinary MODELS data card.          |  RINSER:=o8
      Another ordinary MODELS data card.          |  CLOSE1:=o9
      Another ordinary MODELS data card.          |  RPpos:=o10
      Another ordinary MODELS data card.          |  RPcero:=o11
      Another ordinary MODELS data card.          |  LPpos:=o12
      Another ordinary MODELS data card.          |  LPcero:=o13
      Another ordinary MODELS data card.          |ENDUSE
      Another ordinary MODELS data card.          |USE DEFAULT1 AS DEF
      Another ordinary MODELS data card.          |DATA
      Another ordinary MODELS data card.          |  CPpos:= 0.014484
      Another ordinary MODELS data card.          |  CPcero:= 0.007991
      Another ordinary MODELS data card.          |  Xp:= 889.6912
      Another ordinary MODELS data card.          |  CR:= 17.79382
      Another ordinary MODELS data card.          |  SIMET:=      0.0
      Another ordinary MODELS data card.          |  ENC1:=      0.0
      Another ordinary MODELS data card.          |  ENC2:=      0.0
      Another ordinary MODELS data card.          |  ENC1AS:=      0.0
      Another ordinary MODELS data card.          |  ENC2AS:=       1.
      Another ordinary MODELS data card.          |OUTPUT
      Another ordinary MODELS data card.          |  CPpos:=o1
      Another ordinary MODELS data card.          |  CPcero:=o2
      Another ordinary MODELS data card.          |  Xp:=o3
      Another ordinary MODELS data card.          |  CR:=o4
      Another ordinary MODELS data card.          |  SIMET:=o5
      Another ordinary MODELS data card.          |  ENC1:=o6
      Another ordinary MODELS data card.          |  ENC2:=o7
      Another ordinary MODELS data card.          |  ENC1AS:=o8
      Another ordinary MODELS data card.          |  ENC2AS:=o9
      Another ordinary MODELS data card.          |ENDUSE
      Another ordinary MODELS data card.          |RECORD
      Another ordinary MODELS data card.          |  DEFAULT.o1 AS AnVOL
      Another ordinary MODELS data card.          |  DEFAULT.o2 AS LONG
      Another ordinary MODELS data card.          |  DEFAULT.o3 AS R0F
      Another ordinary MODELS data card.          |  DEFAULT.o4 AS R1F
      Another ordinary MODELS data card.          |  DEFAULT.o5 AS X0F
      Another ordinary MODELS data card.          |  DEFAULT.o6 AS X1F
      Another ordinary MODELS data card.          |  DEFAULT.o7 AS RDIVX
      Another ordinary MODELS data card.          |  DEFAULT.o8 AS RINSER
      Another ordinary MODELS data card.          |  DEFAULT.o9 AS CLOSE1
      Another ordinary MODELS data card.          |  DEFAULT.o10 AS RPpos
      Another ordinary MODELS data card.          |  DEFAULT.o11 AS RPcero
      Another ordinary MODELS data card.          |  DEFAULT.o12 AS LPpos
      Another ordinary MODELS data card.          |  DEFAULT.o13 AS LPcero
      Another ordinary MODELS data card.          |  DEF.o1 AS CPpos
      Another ordinary MODELS data card.          |  DEF.o2 AS CPcero
      Another ordinary MODELS data card.          |  DEF.o3 AS Xp
      Another ordinary MODELS data card.          |  DEF.o4 AS CR
      Another ordinary MODELS data card.          |  DEF.o5 AS SIMET
      Another ordinary MODELS data card.          |  DEF.o6 AS ENC1
      Another ordinary MODELS data card.          |  DEF.o7 AS ENC2
      Another ordinary MODELS data card.          |  DEF.o8 AS ENC1AS
      Another ordinary MODELS data card.          |  DEF.o9 AS ENC2AS
Termination of data for Laurent Dube`s MODELS.    |ENDMODELS
Comment card.   NUMDCD = 153.                     |C        1         2         3         4         5         6         7         8
Comment card.   NUMDCD = 154.                     |C 345678901234567890123456789012345678901234567890123456789012345678901234567890
Optional blank card follows last of MODELS data.  |BLANK MODELS
Comment card.   NUMDCD = 156.                     |C < n1 >< n2 ><ref1><ref2>< R  >< L  >< C  >
Comment card.   NUMDCD = 157.                     |C < n1 >< n2 ><ref1><ref2>< R  >< A  >< B  ><Leng><><>0
1st of coupled R-L.   1.97620E+00  3.38416E-02    |51IFUENASB1A              1.976210.631656839
2nd coil. 2.028E+00 3.472E-02 0.000E+00 0.000E+00 |52IFUENBSB1B              2.027610.908237481
Zca, Zcc=-1.713E-02-2.935E-04 2.010E+00 3.443E-02 |53IFUENCSB1C
Series R-L-C.   1.000E+09  0.000E+00  0.000E+00   |  SB1A                      1.E9                                               0
Series R-L-C.   1.000E+09  0.000E+00  0.000E+00   |  SB1B                      1.E9                                               0
Series R-L-C.   1.000E+09  0.000E+00  0.000E+00   |  SB1C                      1.E9                                               0
Series R-L-C.   1.000E+09  0.000E+00  0.000E+00   |  RSNSHA                    1.E9                                               0
Series R-L-C.   1.000E+09  0.000E+00  0.000E+00   |  RSNSHB                    1.E9                                               0
Series R-L-C.   1.000E+09  0.000E+00  0.000E+00   |  RSNSHC                    1.E9                                               0
Series R-L-C.   1.779E+01  2.832E+00  0.000E+00   |  RSNNHA                  17.794889.69                                         0
Series R-L-C.   1.779E+01  2.832E+00  0.000E+00   |  RSNNHB                  17.794889.69                                         0
Series R-L-C.   1.779E+01  2.832E+00  0.000E+00   |  RSNNHC                  17.794889.69                                         0
Series R-L-C.   1.000E+09  0.000E+00  0.000E+00   |  SE2A                      1.E9                                               0
Series R-L-C.   1.000E+09  0.000E+00  0.000E+00   |  SE2B                      1.E9                                               0
Series R-L-C.   1.000E+09  0.000E+00  0.000E+00   |  SE2C                      1.E9                                               0
Series R-L-C.   2.500E+02  0.000E+00  3.000E-10   |  X0001B                    250.       .0003                                   0
Series R-L-C.   2.500E+02  0.000E+00  3.000E-10   |  X0002B                    250.       .0003                                   0
Series R-L-C.   1.000E-06  0.000E+00  0.000E+00   |  X0001ALN1A               1.E-6                                               0
Series R-L-C.   1.000E-06  0.000E+00  0.000E+00   |  SB1A  X0002A             1.E-6                                               0
Series R-L-C.   1.000E-06  0.000E+00  0.000E+00   |  X0001BLN1B               1.E-6                                               0
Series R-L-C.   1.000E-06  0.000E+00  0.000E+00   |  SB1B  X0002B             1.E-6                                               0
Series R-L-C.   1.000E-06  0.000E+00  0.000E+00   |  X0001CLN1C               1.E-6                                               0
Series R-L-C.   1.000E-06  0.000E+00  0.000E+00   |  SB1C  X0002C             1.E-6                                               0
Series R-L-C.   3.800E+02  0.000E+00  0.000E+00   |  XX0005X0002A              380.                                               0
Series R-L-C.   3.800E+02  0.000E+00  0.000E+00   |  XX0003X0002B              380.                                               0
Series R-L-C.   3.800E+02  0.000E+00  0.000E+00   |  XX0004X0002C              380.                                               0
Series R-L-C.   2.500E+02  0.000E+00  3.000E-10   |  X0001A                    250.       .0003                                   0
Series R-L-C.   1.000E+06  0.000E+00  0.000E+00   |  X0001AX0002A              1.E6                                               0
Series R-L-C.   1.000E+06  0.000E+00  0.000E+00   |  X0001BX0002B              1.E6                                               0
Series R-L-C.   1.000E+06  0.000E+00  0.000E+00   |  X0001CX0002C              1.E6                                               0
Series R-L-C.   2.500E+02  0.000E+00  3.000E-10   |  X0002C                    250.       .0003                                   0
Series R-L-C.   2.500E+02  0.000E+00  3.000E-10   |  X0002A                    250.       .0003                                   0
Series R-L-C.   2.500E+02  0.000E+00  3.000E-10   |  X0001C                    250.       .0003                                   0
Series R-L-C.   1.250E+02  0.000E+00  6.000E-10   |  X0001AX0002A              125.       .0006                                   0
Series R-L-C.   1.250E+02  0.000E+00  6.000E-10   |  X0001BX0002B              125.       .0006                                   0
Series R-L-C.   1.250E+02  0.000E+00  6.000E-10   |  X0001CX0002C              125.       .0006                                   0
 3.334E-01 8.400E-01 7.990E-03 5.785E+02 1.756E-03|-1LN1A  VFF2A             .33339.83996.00799380.01 0 0                         0
 1.835E-02 3.478E-01 1.448E-02 2.765E+02 1.522E-03|-2LN1B  VFF2B             .01835.34783.01448380.01 0 0                         0
3rd or later transposed distributed phase.        |-3LN1C  VFF2C                                                                  0
Blank card ending branches.  IBR, NTOT = 39  31   |BLANK BRANCH
Comment card.   NUMDCD = 198.                     |C < n 1>< n 2>< Tclose ><Top/Tde ><   Ie   ><Vf/CLOP ><  type  >
Switch.  -1.00E+00  1.00E+01  0.00E+00  0.00E+00  |  LN1A  COMPA        -1.       10.                                             0
Switch.  -1.00E+00  1.00E+01  0.00E+00  0.00E+00  |  LN1B  COMPB        -1.       10.                                             0
Switch.  -1.00E+00  1.00E+01  0.00E+00  0.00E+00  |  LN1C  COMPC        -1.       10.                                             0
Switch.  -1.00E+00  1.00E+01  0.00E+00  0.00E+00  |  VFF2A RSNNHA       -1.       10.                                             0
Switch.  -1.00E+00  1.00E+01  0.00E+00  0.00E+00  |  VFF2B RSNNHB       -1.       10.                                             0
Switch.  -1.00E+00  1.00E+01  0.00E+00  0.00E+00  |  VFF2C RSNNHC       -1.       10.                                             0
Switch.   2.00E+00 -1.00E+00  0.00E+00  0.00E+00  |  VFF2A SE2A          2.       -1.                                             0
Switch.   2.00E+00 -1.00E+00  0.00E+00  0.00E+00  |  VFF2B SE2B          2.       -1.                                             0
Switch.   2.00E+00 -1.00E+00  0.00E+00  0.00E+00  |  VFF2C SE2C          2.       -1.                                             0
Switch.   5.07E-02  1.00E+03  0.00E+00  0.00E+00  |  X0001BXX0003.050668918      1.E3                                             0
Switch.   5.07E-02  1.00E+03  0.00E+00  0.00E+00  |  X0001CXX0004.050668918      1.E3                                             0
Switch.   5.82E-02  1.00E+03  0.00E+00  0.00E+00  |  XX0005X0002A.058168918      1.E3                                             0
Switch.   5.82E-02  1.00E+03  0.00E+00  0.00E+00  |  XX0003X0002B.058168918      1.E3                                             0
Switch.   5.82E-02  1.00E+03  0.00E+00  0.00E+00  |  XX0004X0002C.058168918      1.E3                                             0
Switch.   5.07E-02  1.00E+03  0.00E+00  0.00E+00  |  X0001AXX0005.050668918      1.E3                                             0
Permanently-closed switch used for metering.      |  VFUENAIFUENA                                        MEASURING                1
Permanently-closed switch used for metering.      |  VFUENBIFUENB                                        MEASURING                1
Permanently-closed switch used for metering.      |  VFUENCIFUENC                                        MEASURING                1
Permanently-closed switch used for metering.      |  COMPA RSNSHA                                        MEASURING                1
Permanently-closed switch used for metering.      |  COMPB RSNSHB                                        MEASURING                1
Permanently-closed switch used for metering.      |  COMPC RSNSHC                                        MEASURING                1
Blank card ending switches.   KSWTCH = 21.        |BLANK SWITCH
Comment card.   NUMDCD = 221.                     |C < n 1><>< Ampl.  >< Freq.  ><Phase/T0><   A1   ><   T1   >< TSTART >< TSTOP  >
Source.   4.29E+05  5.00E+01  0.00E+00 -1.00E+00  |14VFUENA  428660.705       50.                                     -1.      100.
Source.   4.29E+05  5.00E+01 -1.20E+02 -1.00E+00  |14VFUENB  428660.705       50.     -120.                           -1.      100.
Source.   4.29E+05  5.00E+01 -2.40E+02 -1.00E+00  |14VFUENC  428660.705       50.     -240.                           -1.      100.
Blank card ends electric sources.  KCONST = 3     |BLANK SOURCE
Pi-equivalent branches of distributed circuits are added to the table of List Size 3 between indices  40   and  45.

Sinusoidal steady-state phasor solution, branch by branch.   All flows are away from a bus,  and the real part,  magnitude,  or  "P"
is printed above the imaginary part,  the angle,  or  "Q".   The first solution frequency  =  5.00000000E+01  Hertz.
  Bus K                        Phasor  node  voltage              Phasor  branch  current               Power flow       Power loss
             Bus M         Rectangular            Polar          Rectangular            Polar            P  and  Q        P  and  Q

 IFUENA                    428660.705       428660.705      .42881082995563  .44578031734924      91907.176340208  .20146242859639
                                  0.0              0.0      .12182513471673       15.8598455       -26110.8240672        1.0838430

            SB1A      428661.16444066  428661.16446895      -.4288108299556  .44578031734924      -91906.97487778
                      -4.924583010733       -0.0006582      -.1218251347167     -164.1401545      26111.907910171

 IFUENB                  -214330.3525       428660.705      -.1089017534969  .44578031735001      91907.176340553  .20146242859704
                      -371231.0601341     -120.0000000      -.4322736395178     -104.1401545      -26110.82406659        1.0838430

            SB1B      -214334.8470343  428661.16446895      .10890175349693  .44578031735001      -91906.97487812
                      -371228.9957299     -120.0006582       .4322736395178       75.8598455      26111.907909561

 IFUENC                  -214330.3525       428660.705      -.3199090764628  .44578031734736       91907.17633964  .20146242859484
                      371231.06013415      120.0000000      .31044850479758      135.8598455      -26110.82406772        1.0838430

            SB1C      -214326.3174063  428661.16446895      .31990907646276  .44578031734736      -91906.97487721
                      371233.92031294      119.9993418      -.3104485047976      -44.1401545      26111.907910697

 SB1A                 428661.16444066  428661.16446895      .42866116444E-3  .42866116447E-3      91.875196961938  91.875196961938
                      -4.924583010733       -0.0006582      -.4924583011E-8       -0.0006582      .1285372497E-18        0.0000000

            TERRA                 0.0              0.0      -.4286611644E-3  .42866116447E-3                  0.0
                                  0.0              0.0      .49245830107E-8      179.9993418                  0.0

 SB1B                 -214334.8470343  428661.16446895       -.214334847E-3  .42866116447E-3      91.875196961938  91.875196961938
                      -371228.9957299     -120.0006582      -.3712289957E-3     -120.0006582       -.14190038E-14        0.0000000

            TERRA                 0.0              0.0      .21433484703E-3  .42866116447E-3                  0.0
                                  0.0              0.0      .37122899573E-3       59.9993418                  0.0

 SB1C                 -214326.3174063  428661.16446895      -.2143263174E-3  .42866116447E-3      91.875196961938  91.875196961938
                      371233.92031294      119.9993418      .37123392031E-3      119.9993418      .6557254739E-15        0.0000000

            TERRA                 0.0              0.0      .21432631741E-3  .42866116447E-3                  0.0
                                  0.0              0.0      -.3712339203E-3      -60.0006582                  0.0

 RSNSHA               150.55512453804  674.37211204587      .15055512454E-6  .67437211205E-6      .22738887275E-3  .22738887275E-3
                      -657.3514280661      -77.0998717      -.6573514281E-6      -77.0998717      -.308372932E-20        0.0000000

            TERRA                 0.0              0.0      -.1505551245E-6  .67437211205E-6                  0.0
                                  0.0              0.0      .65735142807E-6      102.9001283                  0.0

 RSNSHB               -644.5605981882  674.37211204587      -.6445605982E-6  .67437211205E-6      .22738887275E-3  .22738887275E-3
                      198.29115151319      162.9001283      .19829115151E-6      162.9001283      .3507245797E-21        0.0000000

            TERRA                 0.0              0.0      .64456059819E-6  .67437211205E-6                  0.0
                                  0.0              0.0      -.1982911515E-6      -17.0998717                  0.0

 RSNSHC               494.00547365021  674.37211204587      .49400547365E-6  .67437211205E-6      .22738887275E-3  .22738887275E-3
                      459.06027655292       42.9001283      .45906027655E-6       42.9001283      -.973426145E-20        0.0000000

            TERRA                 0.0              0.0      -.4940054737E-6  .67437211205E-6                  0.0
                                  0.0              0.0      -.4590602766E-6     -137.0998717                  0.0

 RSNNHA               145.11302564839  654.10433095332      -.7133365828196  .73505776886471      4.8071373899877  4.8071373899877
                      -637.8045825792      -77.1822861      -.1773720473458     -166.0365104      240.35416794977      240.3541679

            TERRA                 0.0              0.0      .71333658281959  .73505776886471                  0.0
                                  0.0              0.0       .1773720473458       13.9634896                  0.0

 RSNNHB               -624.9114839879  654.10433095332      .20305959248708  .73505776886471      4.8071373899877  4.8071373899877
                      193.23072465809      162.8177139      .70645362584344       73.9634896      240.35416794977      240.3541679

            TERRA                 0.0              0.0      -.2030595924871  .73505776886471                  0.0
                                  0.0              0.0      -.7064536258434     -106.0365104                  0.0

 RSNNHC               479.79845833955  654.10433095333      .51027699033251  .73505776886471      4.8071373899878  4.8071373899878
                      444.57385792114       42.8177139      -.5290815784976      -46.0365104      240.35416794977      240.3541679

            TERRA                 0.0              0.0      -.5102769903325  .73505776886471                  0.0
                                  0.0              0.0      .52908157849765      133.9634896                  0.0

 X0001B               -644.5605983319  674.37211206213      -.1868993205E-4  .63558074174E-4      .50495359908E-6  .50495359908E-6
                      198.29115110154      162.9001284      -.6074796484E-4     -107.1012216      -.0214308963536       -0.0214309

            TERRA                 0.0              0.0      .18689932047E-4  .63558074174E-4                  0.0
                                  0.0              0.0      .60747964844E-4       72.8987784                  0.0

 X0002B               -214334.8470342  428661.16446852      .03498703258904  .04040036294399      .20402366575039  .20402366575039
                      -371228.9957295     -120.0006582      -.0202014077881      -30.0020082      -8659.033309858    -8659.0333099

            TERRA                 0.0              0.0       -.034987032589  .04040036294399                  0.0
                                  0.0              0.0      .02020140778806      149.9979918                  0.0

 X0001A               150.55512496636  674.37211206214      .42832760982492  .43599566882306      5.4857791993903  .95046111615E-7
                      -657.3514279847      -77.0998716      .08141057605826       10.7616246      -146.9092727079              0.0

            LN1A      150.55512453804  674.37211204587      -.4283276098249  .43599566882306      -5.485779104344
                      -657.3514280661      -77.0998717      -.0814105760583     -169.2383754      146.90927270786

 SB1A                 428661.16444066  428661.16446895      .42835017666221  .44533721876169      91808.242789187  .99162619449E-7
                      -4.924583010733       -0.0006582      .12182513930981       15.8760427      -26111.90776034        0.0000000

            X0002A    428661.16444023  428661.16446852      -.4283501766622  .44533721876169      -91808.24278909
                      -4.924583132558       -0.0006582      -.1218251393098     -164.1239573      26111.907760345

 X0001B               -644.5605983319  674.37211206213      -.1436601451132   .4359956270455      5.4857718821601  .95046093405E-7
                      198.29115110154      162.9001284      -.4116478464766     -109.2383727      -146.9092588845        0.0000000

            LN1B      -644.5605981882  674.37211204587      .14366014511324   .4359956270455      -5.485771787114
                      198.29115151319      162.9001283      .41164784647663       70.7616273      146.90925888446

 SB1B                 -214334.8470343  428661.16446895      -.1086737029254   .4453631245808      91813.339029006  .99174158663E-7
                      -371228.9957299     -120.0006582      -.4319008439779     -104.1234212      -26114.28586437              0.0

            X0002B    -214334.8470342  428661.16446852      .10867370292544   .4453631245808      -91813.33902891
                      -371228.9957295     -120.0006582      .43190084397793       75.8765788      26114.285864369

 X0001C               494.00547336554  674.37211206214      -.2846674078683  .43599564980355      5.4857841334854  .95046103321E-7
                      459.06027688316       42.9001284      .33023729884007      130.7616226       -146.909266106              0.0

            LN1C      494.00547365021  674.37211204587      .28466740786826  .43599564980355      -5.485784038439
                      459.06027655292       42.9001283      -.3302372988401      -49.2383774      146.90926610603

 SB1C                 -214326.3174063  428661.16446895      -.3197055775672  .44537223930907      91815.320538047  .99178208757E-7
                      371233.92031294      119.9993418      .31007220968604      135.8763540      -26114.46003707        0.0000000

            X0002C     -214326.317406  428661.16446852      .31970557756722  .44537223930907      -91815.32053795
                      371233.92031263      119.9993418       -.310072209686      -44.1236460      26114.460037067

 XX0005               428661.16444023  428661.16446852                  0.0              0.0                  0.0              0.0
                      -4.924583132558       -0.0006582                  0.0              0.0                  0.0              0.0

            X0002A    428661.16444023  428661.16446852                  0.0              0.0                  0.0
                      -4.924583132558       -0.0006582                  0.0              0.0                  0.0

 XX0003               -214334.8470342  428661.16446852                  0.0              0.0                  0.0              0.0
                      -371228.9957295     -120.0006582                  0.0              0.0                  0.0              0.0

            X0002B    -214334.8470342  428661.16446852                  0.0              0.0                  0.0
                      -371228.9957295     -120.0006582                  0.0              0.0                  0.0

 XX0004                -214326.317406  428661.16446852                  0.0              0.0                  0.0              0.0
                      371233.92031263      119.9993418                  0.0              0.0                  0.0              0.0

            X0002C     -214326.317406  428661.16446852                  0.0              0.0                  0.0
                      371233.92031263      119.9993418                  0.0              0.0                  0.0

 X0001A               150.55512496636  674.37211206214      .61954246807E-4  .63558074174E-4      .50495359908E-6  .50495359908E-6
                      -657.3514279847      -77.0998716      .14188026474E-4       12.8987784      -.0214308963536       -0.0214309

            TERRA                 0.0              0.0      -.6195424681E-4  .63558074174E-4                  0.0
                                  0.0              0.0      -.1418802647E-4     -167.1012216                  0.0

 X0001A               150.55512496636  674.37211206214      -.4285106093153  .42851110598972      -32.04279730838  91810.883978265
                      -657.3514279847      -77.0998716      -.6524268449E-3     -179.9127646      140.89014357257        0.0000000

            X0002A    428661.16444023  428661.16446852      .42851060931527  .42851110598972      91842.926775573
                      -4.924583132558       -0.0006582      .65242684485E-3        0.0872354      -140.8901435726

 X0001B               -644.5605983319  674.37211206213      .21369028643588  .42851110598972      -32.04279730838  91810.883978265
                      198.29115110154      162.9001284       .3714272868806       60.0872354      140.89014357257        0.0000000

            X0002B    -214334.8470342  428661.16446852      -.2136902864359  .42851110598972      91842.926775573
                      -371228.9957295     -120.0006582      -.3714272868806     -119.9127646      -140.8901435726

 X0001C               494.00547336554  674.37211206214      .21482032287939  .42851110598972      -32.04279730838  91810.883978265
                      459.06027688316       42.9001284      -.3707748600357      -59.9127646      140.89014357257        0.0000000

            X0002C     -214326.317406  428661.16446852      -.2148203228794  .42851110598972      91842.926775573
                      371233.92031263      119.9993418      .37077486003574      120.0872354      -140.8901435726

 X0002C                -214326.317406  428661.16446852      -.0349884486312  .04040036294399       .2040236657512   .2040236657512
                      371233.92031263      119.9993418      -.0201989551311     -150.0020082      -8659.033309858    -8659.0333099

            TERRA                 0.0              0.0      .03498844863119  .04040036294399                  0.0
                                  0.0              0.0      .02019895513111       29.9979918                  0.0

 X0002A               428661.16444023  428661.16446852      .14160421509E-5  .04040036294399      .20402366575079  .20402366575079
                      -4.924583132558       -0.0006582      .04040036291918       89.9979918      -8659.033309858    -8659.0333099

            TERRA                 0.0              0.0      -.1416042151E-5  .04040036294399                  0.0
                                  0.0              0.0      -.0404003629192      -90.0020082                  0.0

 X0001C               494.00547336554  674.37211206214      -.4326431476E-4  .63558074174E-4      .50495359908E-6  .50495359908E-6
                      459.06027688316       42.9001284       .4655993837E-4      132.8987784      -.0214308963536       -0.0214309

            TERRA                 0.0              0.0       .4326431476E-4  .63558074174E-4                  0.0
                                  0.0              0.0      -.4655993837E-4      -47.1012216                  0.0

 X0001A               150.55512496636  674.37211206214      .12107640931E-3  .08077244053111      26.557024073524  .40776169683453
                      -657.3514279847      -77.0998716      -.0807723497854      -89.9141146      6.0405507326058   -17305.9439079

            X0002A    428661.16444023  428661.16446852      -.1210764093E-3  .08077244053111      -26.14926237669
                      -4.924583132558       -0.0006582       .0807723497854       90.0858854      -17311.98445867

 X0001B               -644.5605983319  674.37211206213      -.0700114450422  .08077244053111      26.557024073524  .40776169683401
                      198.29115110154      162.9001284      .04028131964644      150.0858854      6.0405507326055   -17305.9439079

            X0002B    -214334.8470342  428661.16446852      .07001144504218  .08077244053111      -26.14926237669
                      -371228.9957295     -120.0006582      -.0402813196464      -29.9141146      -17311.98445867

 X0001C               494.00547336554  674.37211206214      .06989036863287  .08077244053111      26.557024073524  .40776169683513
                      459.06027688316       42.9001284      .04049103013897       30.0858854      6.0405507326056   -17305.9439079

            X0002C     -214326.317406  428661.16446852      -.0698903686329  .08077244053111      -26.14926237669
                      371233.92031263      119.9993418       -.040491030139     -149.9141146      -17311.98445867

 LN1A                 150.55512453804  674.37211204587      .42832742878704  .43599561549829      5.4855462775696  .67840888758191
                      -657.3514280661      -77.0998717      .08141124297302       10.7617152      -146.9092634088     -387.2634314

            VFF2A     145.11302564839  654.10433095332      .71333658281959  .73505776886471      -4.807137389988
                      -637.8045825792      -77.1822861       .1773720473458       13.9634896      -240.3541679498

 LN1B                 -644.5605981882  674.37211204587      -.1436595098252  .43599561549829      5.4855462775681  .67840888758054
                      198.29115151319      162.9001283      -.4116480559538     -109.2382848      -146.9092634088     -387.2634314

            VFF2B     -624.9114839879  654.10433095332      -.2030595924871   .7350577688647      -4.807137389988
                      193.23072465809      162.8177139      -.7064536258434     -106.0365104      -240.3541679498

 LN1C                 494.00547365021  674.37211204587      -.2846679189618  .43599561549829      5.4855462775687  .67840888758085
                      459.06027655292       42.9001283      .33023681298074      130.7617152      -146.9092634088     -387.2634314

            VFF2C     479.79845833955  654.10433095333      -.5102769903325  .73505776886471      -4.807137389988
                      444.57385792114       42.8177139      .52908157849765      133.9634896      -240.3541679498
     Total network loss  P-loss  by summing injections =   2.757345434696E+05

Output for steady-state phasor switch currents.
      Node-K    Node-M            I-real            I-imag            I-magn          Degrees        Power            Reactive
      LN1A      COMPA         1.85507003E-07   -7.93802584E-07    8.15190402E-07     -76.8464    2.74868146E-04   -1.21612335E-06
      LN1B      COMPB        -7.65054781E-07    2.21548825E-07    7.96487727E-07     163.8497    2.68527669E-04   -4.45097527E-06
      LN1C      COMPC         4.83221789E-07    4.73859725E-07    6.76791206E-07      44.4396    2.28122192E-04   -6.13068485E-06
      VFF2A     RSNNHA       -7.13336583E-01   -1.77372047E-01    7.35057769E-01    -166.0365    4.80713739E+00    2.40354168E+02
      VFF2B     RSNNHB        2.03059592E-01    7.06453626E-01    7.35057769E-01      73.9635    4.80713739E+00    2.40354168E+02
      VFF2C     RSNNHC        5.10276990E-01   -5.29081578E-01    7.35057769E-01     -46.0365    4.80713739E+00    2.40354168E+02
      VFF2A     SE2A              Open              Open              Open             Open          Open              Open
      VFF2B     SE2B              Open              Open              Open             Open          Open              Open
      VFF2C     SE2C              Open              Open              Open             Open          Open              Open
      X0001B    XX0003            Open              Open              Open             Open          Open              Open
      X0001C    XX0004            Open              Open              Open             Open          Open              Open
      XX0005    X0002A            Open              Open              Open             Open          Open              Open
      XX0003    X0002B            Open              Open              Open             Open          Open              Open
      XX0004    X0002C            Open              Open              Open             Open          Open              Open
      X0001A    XX0005            Open              Open              Open             Open          Open              Open
      VFUENA    IFUENA        4.28810830E-01    1.21825135E-01    4.45780317E-01      15.8598    9.19071763E+04   -2.61108241E+04
      VFUENB    IFUENB       -1.08901753E-01   -4.32273640E-01    4.45780317E-01    -104.1402    9.19071763E+04   -2.61108241E+04
      VFUENC    IFUENC       -3.19909076E-01    3.10448505E-01    4.45780317E-01     135.8598    9.19071763E+04   -2.61108241E+04
      COMPA     RSNSHA        1.85507003E-07   -7.93802584E-07    8.15190402E-07     -76.8464    2.74868146E-04   -1.21612335E-06
      COMPB     RSNSHB       -7.65054781E-07    2.21548825E-07    7.96487727E-07     163.8497    2.68527669E-04   -4.45097527E-06
      COMPC     RSNSHC        4.83221789E-07    4.73859725E-07    6.76791206E-07      44.4396    2.28122192E-04   -6.13068485E-06

Solution at nodes with known voltage.   Nodes that are shorted together by switches are shown as a group of names, with the printed
result applying to the composite group.   The entry "MVA" is  SQRT( P**2 + Q**2 )  in units of power,  while  "P.F."  is the
associated power factor.
              Node                Source  node  voltage             Injected  source  current              Injected  source  power
              name         Rectangular            Polar          Rectangular            Polar            P  and  Q    MVA and P.F.

               VFUENA
              IFUENA       428660.705       428660.705      .42881082995536   .4457803173462       91907.17634015  95544.252554373
                                  0.0              0.0      .12182513470657       15.8598455      -26110.82406502        0.9619331

               VFUENB
              IFUENB     -214330.3525       428660.705      -.1089017534985  .44578031735078      91907.176340797  95544.252555354
                      -371231.0601341     -120.0000000      -.4322736395182     -104.1401545      -26110.82406633        0.9619331

               VFUENC
              IFUENC     -214330.3525       428660.705      -.3199090764636  .44578031734694      91907.176339453  95544.252554531
                      371231.06013415      120.0000000      .31044850479606      135.8598455      -26110.82406805        0.9619331

  +++  Node  "COMPC "  has no connected linear branches.  Add (to ground) the conductance  G = 1.00000000E-18  mhos.
  +++  Node  "COMPB "  has no connected linear branches.  Add (to ground) the conductance  G = 1.00000000E-18  mhos.
  +++  Node  "COMPA "  has no connected linear branches.  Add (to ground) the conductance  G = 1.00000000E-18  mhos.
Card of names for time-step loop output.          |  LN1A  LN1B  LN1C  COMPA COMPB COMPC SB1A  SB1B  SB1C  SE2A  SE2B  SE2C  VFF2A
Card of names for time-step loop output.          |  VFF2B VFF2C IFUENAIFUENBIFUENC
Card of names for time-step loop output.          |-5VFF2A VFF2B VFF2B VFF2C VFF2C VFF2A LN1A  LN1B  LN1B  LN1C  LN1C  LN1A
Card of names for time-step loop output.          |-5SB1A  SB1B  SB1B  SB1C  SB1C  SB1A
Blank card ending requests for output variables.  |BLANK OUTPUT

Column headings for the  55   EMTP output variables follow.  These are divided among the 5 possible classes as follows ....
  First  27     output variables are electric-network voltage differences (upper voltage minus lower voltage);
  Next   6     output variables are branch currents (flowing from the upper node to the lower node);
  Next   22     output variables belong to MODELS (with "MODELS" an internally-added upper name of pair).
   Step      Time      LN1A       LN1B       LN1C       COMPA      COMPB      COMPC      SB1A       SB1B       SB1C       SE2A
 

                       SE2B       SE2C       VFF2A      VFF2B      VFF2C      IFUENA     IFUENB     IFUENC     VFF2A      VFF2B
                                                                                                               VFF2B      VFF2C

                       VFF2C      LN1A       LN1B       LN1C       SB1A       SB1B       SB1C       VFUENA     VFUENB     VFUENC
                       VFF2A      LN1B       LN1C       LN1A       SB1B       SB1C       SB1A       IFUENA     IFUENB     IFUENC

                       COMPA      COMPB      COMPC      MODELS     MODELS     MODELS     MODELS     MODELS     MODELS     MODELS
                       RSNSHA     RSNSHB     RSNSHC     ANVOL      LONG       R0F        R1F        X0F        X1F        RDIVX

                       MODELS     MODELS     MODELS     MODELS     MODELS     MODELS     MODELS     MODELS     MODELS     MODELS
                       RINSER     CLOSE1     RPPOS      RPCERO     LPPOS      LPCERO     CPPOS      CPCERO     XP         CR

                       MODELS     MODELS     MODELS     MODELS     MODELS
                       SIMET      ENC1       ENC2       ENC1AS     ENC2AS
 ***      Phasor I(0) =  1.8550700E-07                     Switch  "LN1A  "  to  "COMPA "  closed in the steady-state.
 ***      Phasor I(0) = -7.6505478E-07                     Switch  "LN1B  "  to  "COMPB "  closed in the steady-state.
 ***      Phasor I(0) =  4.8322179E-07                     Switch  "LN1C  "  to  "COMPC "  closed in the steady-state.
 ***      Phasor I(0) = -7.1333658E-01                     Switch  "VFF2A "  to  "RSNNHA"  closed in the steady-state.
 ***      Phasor I(0) =  2.0305959E-01                     Switch  "VFF2B "  to  "RSNNHB"  closed in the steady-state.
 ***      Phasor I(0) =  5.1027699E-01                     Switch  "VFF2C "  to  "RSNNHC"  closed in the steady-state.
 ***      Phasor I(0) =  4.2881083E-01                     Switch  "VFUENA"  to  "IFUENA"  closed in the steady-state.
 ***      Phasor I(0) = -1.0890175E-01                     Switch  "VFUENB"  to  "IFUENB"  closed in the steady-state.
 ***      Phasor I(0) = -3.1990908E-01                     Switch  "VFUENC"  to  "IFUENC"  closed in the steady-state.
 ***      Phasor I(0) =  1.8550700E-07                     Switch  "COMPA "  to  "RSNSHA"  closed in the steady-state.
 ***      Phasor I(0) = -7.6505478E-07                     Switch  "COMPB "  to  "RSNSHB"  closed in the steady-state.
 ***      Phasor I(0) =  4.8322179E-07                     Switch  "COMPC "  to  "RSNSHC"  closed in the steady-state.
      0       0.0  150.555125  -644.5606 494.005474 150.555125  -644.5606 494.005474 428661.164 -214334.85 -214326.32        0.0
                          0.0        0.0 145.113026 -624.91148 479.798458 428660.705 -214330.35 -214330.35  770.02451 -1104.7099
                   334.685433 795.115723 -1138.5661 343.450349 642996.011  -8.529628 -642987.48  .42881083 -.10890175 -.31990908
                   .185507E-6 -.76505E-6 .483222E-6        0.0   380.0104   1.976235   2.027646   10.63166   10.90824    .185882
                         380.    .050669    .018352    .333395    .347825     .83996    .014484    .007991   889.6912   17.79382
                          0.0        0.0        0.0        0.0        1.0
    500     .5E-3  251.534187 -667.64465 416.110465 251.534187 -667.64465 416.110465 423384.422 -153623.03 -269761.39        0.0
                          0.0        0.0 243.101062 -647.44572 404.344663  423383.18 -153618.26 -269764.92 890.546786 -1051.7904
                   161.243602 919.178838 -1083.7551 164.576278 577007.451 116138.365 -693145.82 .404457151 -.03993261 -.36452454
                   .274917E-6 -.73009E-6 .426691E-6        0.0   380.0104   1.976235   2.027646   10.63166   10.90824    .185882
                         380.    .050669    .018352    .333395    .347825     .83996    .014484    .007991   889.6912   17.79382
                          0.0        0.0        0.0        0.0        1.0
   1000     .1E-2  346.319113 -674.28883 327.969721 346.319113 -674.28883 327.969721 407682.518 -89128.485 -318554.03        0.0
                          0.0        0.0 335.103142 -654.03771 318.934568 407680.557 -89123.572 -318556.98 989.140852 -972.97228
                   -16.168574 1020.60795 -1002.2586 -18.349391 496811.003 229425.547 -726236.55 .370159725 .030012133 -.40017186
                   .362601E-6  -.6835E-6  .32087E-6        0.0   380.0104   1.976235   2.027646   10.63166   10.90824    .185882
                         380.    .050669    .018352    .333395    .347825     .83996    .014484    .007991   889.6912   17.79382
                          0.0        0.0        0.0        0.0        1.0
   1500     .0015  432.576874 -664.32997 231.753094 432.576874 -664.32997 231.753094  381942.13 -22439.309 -359502.82        0.0
                          0.0        0.0 418.853871 -644.52512 225.671245 381939.485 -22434.368 -359505.12 1063.37899 -870.19636
                   -193.18263 1096.90684 -896.08306 -200.82378 404381.439 337063.511 -741444.95 .326749626 .099216938 -.42596656
                   .441782E-6 -.74986E-6 .251282E-6        0.0   380.0104   1.976235   2.027646   10.63166   10.90824    .185882
                         380.    .050669    .018352    .333395    .347825     .83996    .014484    .007991   889.6912   17.79382
                          0.0        0.0        0.0        0.0        1.0
   2000      .002  508.183112 -638.01306 129.829951 508.183112 -638.01306 129.829951 346797.061 44802.3954 -391599.46        0.0
                          0.0        0.0 492.289923 -619.14159 126.851671 346793.795 44807.2448 -391601.04 1111.43152 -745.99327
                   -365.43825 1146.19618 -767.84301 -378.35316 301994.666 436401.852 -738396.52 .275293656 .165978797 -.44127245
                   .533631E-6 -.61389E-6  .13713E-6        0.0   380.0104   1.976235   2.027646   10.63166   10.90824    .185882
                         380.    .050669    .018352    .333395    .347825     .83996    .014484    .007991   889.6912   17.79382
                          0.0        0.0        0.0        0.0        1.0
   2500     .0025  571.276182 -595.98616 24.7099789 571.276182 -595.98616 24.7099789 303112.698 110940.917 -414053.62        0.0
                          0.0        0.0 553.606355 -578.51388 24.9075224 303108.891 110945.554 -414054.45 1132.12023  -603.4214
                   -528.69883 1167.26234 -620.69614  -546.5662 192171.782 524994.532 -717166.31 .217058898  .22865378 -.44571268
                   .555709E-6 -.59437E-6 .243781E-7        0.0   380.0104   1.976235   2.027646   10.63166   10.90824    .185882
                         380.    .050669    .018352    .333395    .347825     .83996    .014484    .007991   889.6912   17.79382
                          0.0        0.0        0.0        0.0        1.0
   3000      .003  620.302535  -539.2841 -81.018435 620.302535  -539.2841 -81.018435 251964.695 174347.704  -426312.4        0.0
                          0.0        0.0 601.290052 -523.64068 -77.649377 251960.441 174352.016 -426312.46 1124.93073  -445.9913
                   -678.93943 1159.58664 -458.26567 -701.32097 77616.9902 600660.103 -678277.09 .153479459 .285698534 -.43917799
                   .643565E-6 -.58012E-6 -.91793E-7        0.0   380.0104   1.976235   2.027646   10.63166   10.90824    .185882
                         380.    .050669    .018352    .333395    .347825     .83996    .014484    .007991   889.6912   17.79382
                          0.0        0.0        0.0        0.0        1.0
   3500     .0035  654.055222 -469.30317 -184.75205 654.055222 -469.30317 -184.75205 194612.494 233461.468 -428073.96        0.0
                          0.0        0.0 634.167956 -455.87368 -178.29428 194607.888 233465.353 -428073.24 1090.04163  -277.5794
                   -812.46224 1123.35839 -284.55112 -838.80727 -38848.975  661535.43 -622686.46 .086115462 .335711136  -.4218266
                   .706129E-6 -.51791E-6 -.18824E-6        0.0   380.0104   1.976235   2.027646   10.63166   10.90824    .185882
                         380.    .050669    .018352    .333395    .347825     .83996    .014484    .007991   889.6912   17.79382
                          0.0        0.0        0.0        0.0        1.0
   4000      .004  671.702317 -387.76618 -283.93614 671.702317 -387.76618 -283.93614 132468.258 286826.651 -419294.91        0.0
                          0.0        0.0 651.430561 -376.88157 -274.54899 132463.443 286829.997 -419293.44 1028.31213 -102.33259
                   -925.97955 1059.46849 -103.83004 -955.63846 -154358.39 706121.559 -551763.17 .016640533  .37745265 -.39409318
                   .743338E-6 -.39006E-6 -.29639E-6        0.0   380.0104   1.976235   2.027646   10.63166   10.90824    .185882
                         380.    .050669    .018352    .333395    .347825     .83996    .014484    .007991   889.6912   17.79382
                          0.0        0.0        0.0        0.0        1.0
   4500     .0045  672.810342 -296.68133 -376.12901 672.810342 -296.68133 -376.12901 67062.2412 333129.195 -400191.44        0.0
                          0.0        0.0 652.652794  -288.6094 -364.04339 67057.3081 333131.936 -400189.24 941.262194 75.4339939
                   -1016.6962 969.491669 79.4476858 -1048.9394 -266066.95 733320.631 -467253.68 -.05324698 .409901453 -.35665447
                   .702859E-6 -.32367E-6 -.37928E-6        0.0   380.0104   1.976235   2.027646   10.63166   10.90824    .185882
                         380.    .050669    .018352    .333395    .347825     .83996    .014484    .007991   889.6912   17.79382
                          0.0        0.0        0.0        0.0        1.0
   5000      .005  657.351401 -198.29112 -459.06028 657.351401 -198.29112 -459.06028 4.92437326 371228.996 -371233.92        0.0
                          0.0        0.0  637.80491 -193.23086 -444.57405 -.45661E-7  371231.06 -371231.06 831.035771  251.34319
                    -1082.379 855.642525 260.769154 -1116.4117 -371224.07 742462.916 -371238.84 -.12182499 .432257931 -.31043294
                   .715079E-6 -.19966E-6 -.45859E-6        0.0   380.0104   1.976235   2.027646   10.63166   10.90824    .185882
                         380.    .050669    .018352    .333395    .347825     .83996    .014484    .007991   889.6912   17.79382
                          0.0        0.0        0.0        0.0        1.0
   5500     .0055  625.706288 -95.018341 -530.68795 625.706288 -95.018341 -530.68795 -67052.516 400187.908 -333135.39        0.0
                          0.0        0.0 607.251944  -93.09426 -514.15768 -67057.308 400189.244 -333131.94 700.346204 421.063424
                   -1121.4096 720.724629 435.669605 -1156.3942 -467240.42   733323.3 -266082.88 -.18740324 .443970765 -.25656753
                   .621476E-6 -.10182E-6 -.54808E-6        0.0   380.0104   1.976235   2.027646   10.63166   10.90824    .185882
                         380.    .050669    .018352    .333395    .347825     .83996    .014484    .007991   889.6912   17.79382
                          0.0        0.0        0.0        0.0        1.0
   6000      .006   578.65422  10.594103 -589.24832  578.65422  10.594103 -589.24832  -132458.9 419292.866 -286833.96        0.0
                          0.0        0.0 561.745775 9.33495141 -571.08073 -132463.44  419293.44   -286830. 552.410824 580.415678
                   -1132.8265 568.060117 599.842426 -1167.9025 -551751.77  706126.83 -154375.06 -.24836685 .444751494 -.19638465
                   .628002E-6 .105297E-7 -.58353E-6        0.0   380.0104   1.976235   2.027646   10.63166   10.90824    .185882
                         380.    .050669    .018352    .333395    .347825     .83996    .014484    .007991   889.6912   17.79382
                          0.0        0.0        0.0        0.0        1.0
   6500     .0065  517.353932 115.945629 -633.29956 517.353932 115.945629 -633.29956  -194603.7 428073.437 -233469.74        0.0
                          0.0        0.0 502.408028 111.534079 -613.94211 -194607.89  428073.24 -233465.35 390.873949 725.476185
                   -1116.3501 401.408304 749.245189 -1150.6535 -622677.14 661543.174 -38866.039 -.30321464 .434580864 -.13136623
                   .568784E-6  .11599E-6 -.64215E-6        0.0   380.0104   1.976235   2.027646   10.63166   10.90824    .185882
                         380.    .050669    .018352    .333395    .347825     .83996    .014484    .007991   889.6912   17.79382
                          0.0        0.0        0.0        0.0        1.0
   7000      .007  443.314064 218.442459 -661.75652 443.314064 218.442459 -661.75652 -251956.73  426313.43  -174356.7        0.0
                          0.0        0.0 430.699391 210.986828 -641.68622 -251960.44 426312.457 -174352.02 219.712563 852.673046
                   -1072.3856 224.871605 880.198982 -1105.0706 -678270.16  600670.13  77600.031 -.35059551 .413709026 -.06311351
                   .444955E-6 .215969E-6 -.71776E-6        0.0   380.0104   1.976235   2.027646   10.63166   10.90824    .185882
                         380.    .050669    .018352    .333395    .347825     .83996    .014484    .007991   889.6912   17.79382
                          0.0        0.0        0.0        0.0        1.0
   7500     .0075   358.35905 315.560154  -673.9192  358.35905 315.560154  -673.9192 -303105.73 414056.162 -110950.43        0.0
                          0.0        0.0   348.3855 305.244384 -653.62988 -303108.89 414054.446 -110945.55 43.1411159 958.874268
                   -1002.0154  42.798896 989.479358 -1032.2783 -717161.89 525006.594 192155.299 -.38934504 .382651041 .006694001
                   .387472E-6 .304732E-6 -.69221E-6        0.0   380.0104   1.976235   2.027646   10.63166   10.90824    .185882
                         380.    .050669    .018352    .333395    .347825     .83996    .014484    .007991   889.6912   17.79382
                          0.0        0.0        0.0        0.0        1.0
   8000      .008  264.579747 404.907869 -669.48762 264.579747 404.907869 -669.48762 -346791.27 391603.462 -44812.191        0.0
                          0.0        0.0 257.492193 391.986339 -649.47853  -346793.8  391601.04 -44807.245 -134.49415 1041.46487
                   -906.97073 -140.32812 1074.39548 -934.06736 -738394.73 436415.653  301979.08 -.41850781 .342171017  .07633679
                   .265276E-6 .407616E-6 -.72969E-6        0.0   380.0104   1.976235   2.027646   10.63166   10.90824    .185882
                         380.    .050669    .018352    .333395    .347825     .83996    .014484    .007991   889.6912   17.79382
                          0.0        0.0        0.0        0.0        1.0
   8500     .0085  164.285666 484.285373 -648.57104 164.285666 484.285373 -648.57104 -381937.66 359508.184 22429.4742        0.0
                          0.0        0.0 160.260571 469.075263 -629.33583 -381939.48 359505.117 22434.3679 -308.81469  1098.4111
                    -789.5964 -319.99971 1132.85641  -812.8567 -741445.84  337078.71 404367.133 -.43736472 .293265206 .144099511
                   .159168E-6 .511165E-6 -.72719E-6        0.0   380.0104   1.976235   2.027646   10.63166   10.90824    .185882
                         380.    .050669    .018352    .333395    .347825     .83996    .014484    .007991   889.6912   17.79382
                          0.0        0.0        0.0        0.0        1.0
   9000      .009  59.9463051 551.738176 -611.68448 59.9463051 551.738176 -611.68448 -407679.47 318560.621 89118.8508        0.0
                          0.0        0.0 59.0815926 534.614601 -593.69619 -407680.56 318556.985  89123.572 -475.53301  1128.3108
                   -652.77779 -491.79187 1163.42266 -671.63079 -726240.09 229441.771 496798.323 -.44545221  .23713821 .208314002
                    .63901E-7  .55185E-6 -.60868E-6        0.0   380.0104   1.976235   2.027646   10.63166   10.90824    .185882
                         380.    .050669    .018352    .333395    .347825     .83996    .014484    .007991   889.6912   17.79382
                          0.0        0.0        0.0        0.0        1.0
   9500     .0095   -45.86789 605.604758 -559.73687  -45.86789 605.604758 -559.73687 -423382.86 269769.038 153613.825        0.0
                          0.0        0.0 -43.551817 586.989785 -543.43797 -423383.18 269764.922 153618.258  -630.5416 1130.42775
                   -499.88615 -651.47265 1165.34163 -513.86898  -693151.9 116155.213 576996.688 -.44257136 .175172166 .267399193
                   -.51002E-7 .610293E-6 -.58766E-6        0.0   380.0104   1.976235   2.027646   10.63166   10.90824    .185882
                         380.    .050669    .018352    .333395    .347825     .83996    .014484    .007991   889.6912   17.79382
                          0.0        0.0        0.0        0.0        1.0
  10000       .01  -150.55517 644.560563 -494.00539 -150.55517 644.560563 -494.00539 -428661.17  214334.85 214326.321        0.0
                          0.0        0.0 -145.11301 624.911412  -479.7984 -428660.71 214330.353 214330.352 -770.02442 1104.70981
                   -334.68539 -795.11574 1138.56595 -343.45022 -642996.02 8.52929344 642987.493 -.42879318 .108892927 .319900256
                   -.15978E-6 .636454E-6 -.50504E-6        0.0   380.0104   1.976235   2.027646   10.63166   10.90824    .185882
                         380.    .050669    .018352    .333395    .347825     .83996    .014484    .007991   889.6912   17.79382
                          0.0        0.0        0.0        0.0        1.0
  10500     .0105  -251.53385 667.644429 -416.11058 -251.53385 667.644429 -416.11058  -423384.4  153623.02 269761.385        0.0
                          0.0        0.0 -243.10104  647.44565  -404.3446 -423383.18 153618.258 269764.922 -890.54669 1051.79025
                   -161.24356 -919.17827 1083.75501 -164.57674 -577007.42 -116138.36 693145.789 -.40445599 .039932032 .364523955
                    -.2718E-6 .683065E-6 -.41127E-6        0.0   380.0104   1.976235   2.027646   10.63166   10.90824    .185882
                         380.    .050669    .018352    .333395    .347825     .83996    .014484    .007991   889.6912   17.79382
                          0.0        0.0        0.0        0.0        1.0
  11000      .011  -346.31918 674.288814 -327.96963 -346.31918 674.288814 -327.96963 -407682.52 89128.4847 318554.032        0.0
                          0.0        0.0 -335.10408 654.038132 -318.93405 -407680.56  89123.572 318556.985 -989.14221 972.972181
                   16.1700336  -1020.608 1002.25844 18.3495531   -496811. -229425.55 726236.548 -.37016031 -.03001184 .400172153
                   -.37919E-6  .72008E-6 -.34089E-6        0.0   380.0104   1.976235   2.027646   10.63166   10.90824    .185882
                         380.    .050669    .018352    .333395    .347825     .83996    .014484    .007991   889.6912   17.79382
                          0.0        0.0        0.0        0.0        1.0
  11500     .0115  -432.57686 664.329894 -231.75304 -432.57686 664.329894 -231.75304 -381942.13 22439.3099 359502.821        0.0
                          0.0        0.0 -418.85358 644.524909 -225.67133 -381939.48 22434.3679 359505.117 -1063.3785 870.196237
                   193.182255 -1096.9067 896.082932 200.823818 -404381.44 -337063.51 741444.951 -.32674964 -.09921693 .425966572
                   -.43096E-6 .744606E-6 -.25681E-6        0.0   380.0104   1.976235   2.027646   10.63166   10.90824    .185882
                         380.    .050669    .018352    .333395    .347825     .83996    .014484    .007991   889.6912   17.79382
                          0.0        0.0        0.0        0.0        1.0
  12000      .012  -508.18307 638.012981 -129.82991 -508.18307 638.012981 -129.82991 -346797.06 -44802.395 391599.457        0.0
                          0.0        0.0 -492.29101 619.142097 -126.85108  -346793.8 -44807.245  391601.04 -1111.4331 745.993181
                    365.43993 -1146.1961 767.842888 378.353168 -301994.67 -436401.85 738396.518 -.27529357 -.16597884 .441272409
                   -.53578E-6  .64338E-6 -.13599E-6        0.0   380.0104   1.976235   2.027646   10.63166   10.90824    .185882
                         380.    .050669    .018352    .333395    .347825     .83996    .014484    .007991   889.6912   17.79382
                          0.0        0.0        0.0        0.0        1.0
  12500     .0125  -571.27603 595.986037 -24.710012 -571.27603 595.986037 -24.710012 -303112.69 -110940.92 414053.613        0.0
                          0.0        0.0 -553.60628 578.513796 -24.907517 -303108.89 -110945.55 414054.446 -1132.1201 603.421314
                   528.698761 -1167.2621 620.696049 546.566014 -192171.77 -524994.53 717166.306 -.21705887 -.22865379 .445712664
                   -.57693E-6 .660562E-6 -.26734E-7        0.0   380.0104   1.976235   2.027646   10.63166   10.90824    .185882
                         380.    .050669    .018352    .333395    .347825     .83996    .014484    .007991   889.6912   17.79382
                          0.0        0.0        0.0        0.0        1.0
  13000      .013  -620.30283 539.284193 81.0186346 -620.30283 539.284193 81.0186346 -251964.69  -174347.7 426312.399        0.0
                          0.0        0.0 -601.28998 523.640587 77.6493892 -251960.44 -174352.02 426312.457 -1124.9306 445.991198
                   678.939366  -1159.587 458.265558 701.321462  -77616.99  -600660.1 678277.093 -.15347988 -.28569832 .439178202
                    -.6013E-6 .558796E-6 .850414E-7        0.0   380.0104   1.976235   2.027646   10.63166   10.90824    .185882
                         380.    .050669    .018352    .333395    .347825     .83996    .014484    .007991   889.6912   17.79382
                          0.0        0.0        0.0        0.0        1.0
  13500     .0135  -654.05495 469.303001 184.751949 -654.05495 469.303001 184.751949 -194612.48 -233461.47 428073.956        0.0
                          0.0        0.0  -634.1679 455.873603 178.294299 -194607.89 -233465.35  428073.24 -1090.0415 277.579304
                   812.462201  -1123.358 284.551052 838.806898 38848.9927 -661535.43 622686.437 -.08612061 -.33570856 .421829168
                   -.68223E-6 .504121E-6 .206535E-6        0.0   380.0104   1.976235   2.027646   10.63166   10.90824    .185882
                         380.    .050669    .018352    .333395    .347825     .83996    .014484    .007991   889.6912   17.79382
                          0.0        0.0        0.0        0.0        1.0
  14000      .014  -671.70233 387.766151 283.936178 -671.70233 387.766151 283.936178 -132468.27 -286826.65 419294.913        0.0
                          0.0        0.0 -651.42977 376.881154 274.548616 -132463.44   -286830.  419293.44 -1028.3109 102.332538
                   925.978385 -1059.4685 103.829973 955.638507 154358.378 -706121.56 551763.181  -.0166418 -.37745202 .394093819
                   -.68794E-6 .420882E-6 .323926E-6        0.0   380.0104   1.976235   2.027646   10.63166   10.90824    .185882
                         380.    .050669    .018352    .333395    .347825     .83996    .014484    .007991   889.6912   17.79382
                          0.0        0.0        0.0        0.0        1.0
  14500     .0145  -672.81024 296.681242    376.129 -672.81024 296.681242    376.129 -67062.244 -333129.19 400191.437        0.0
                          0.0        0.0 -652.65247 288.609205 364.043268 -67057.308 -333131.94 400189.244 -941.26168 -75.434063
                   1016.69574 -969.49148 -79.447758 1048.93924  266066.95 -733320.63 467253.681 .053247323 -.40990163 .356654302
                   -.69722E-6 .321053E-6 .376138E-6        0.0   380.0104   1.976235   2.027646   10.63166   10.90824    .185882
                         380.    .050669    .018352    .333395    .347825     .83996    .014484    .007991   889.6912   17.79382
                          0.0        0.0        0.0        0.0        1.0
  % % % % % %   Suspended simulation;  plot data space exhausted;  SPY SPACE is required.   LIMBUF =  840000.
  % % % % % %   Suspended simulation;  plot data space exhausted;  SPY SPACE is required.   LIMBUF =  840000.
  +++  Time-sharing disabled.   Send  user-keyed interrupt to silence alarm.
   Current values.  INDBUF  INDBEG  LIMBUF  MFLUSH  NUMDCD  KCARD1  KCARD2
                    839994      50  840000    1000     230       1     231
Plot timespan now in memory (in sec) = 0.00000000E+00   1.49990000E-02
   ++++  Begin plot-data copy from memory to disk.   MFLUSH, INDBUF, N4, Tbeg,  Tend = 1001  839994       1  -1.00000E+00
1.00000E+19
  15000      .015   -657.3513 198.291044 459.060259  -657.3513 198.291044 459.060259 -4.9241795   -371229.  371233.92        0.0
                          0.0        0.0 -637.80448  193.23063 444.573845 -.61533E-6 -371231.06  371231.06 -831.03511 -251.34321
                   1082.37832 -855.64235 -260.76921 1116.41156 371224.072 -742462.92 371238.844 .121825113 -.43225799 .310432877
                   -.67976E-6 .210311E-6 .497879E-6        0.0   380.0104   1.976235   2.027646   10.63166   10.90824    .185882
                         380.    .050669    .018352    .333395    .347825     .83996    .014484    .007991   889.6912   17.79382
                          0.0        0.0        0.0        0.0        1.0
  15500     .0155  -625.70738 95.0188818 530.688502 -625.70738 95.0188818 530.688502 67052.5166 -400187.91 333135.392        0.0
                          0.0        0.0 -607.25143 93.0939913 514.157435 67057.3081 -400189.24 333131.936 -700.34542 -421.06344
                   1121.40886 -720.72627 -435.66962 1156.39589 467240.425  -733323.3 266082.875  .18740412 -.44397121 .256567085
                   -.61539E-6  .98284E-7 .602333E-6        0.0   380.0104   1.976235   2.027646   10.63166   10.90824    .185882
                         380.    .050669    .018352    .333395    .347825     .83996    .014484    .007991   889.6912   17.79382
                          0.0        0.0        0.0        0.0        1.0
  16000      .016  -578.65409 -10.594182 589.248273 -578.65409 -10.594182 589.248273   132458.9 -419292.87 286833.965        0.0
                          0.0        0.0 -561.74567 -9.3350193 571.080688 132463.443 -419293.44 286829.997 -552.41065 -580.41571
                   1132.82636 -568.05991 -599.84245 1167.90236 551751.765 -706126.83 154375.065 .248366784 -.44475146 .196384678
                   -.62106E-6 -.11888E-7  .57969E-6        0.0   380.0104   1.976235   2.027646   10.63166   10.90824    .185882
                         380.    .050669    .018352    .333395    .347825     .83996    .014484    .007991   889.6912   17.79382
                          0.0        0.0        0.0        0.0        1.0
  16500     .0165  -517.35363 -115.94577 633.299398 -517.35363 -115.94577 633.299398 194603.708 -428073.44 233469.733        0.0
                          0.0        0.0 -502.40798 -111.53411  613.94209 194607.888 -428073.24 233465.353 -390.87387  -725.4762
                   1116.35007 -401.40785 -749.24517 1150.65302 622677.149 -661543.17 38866.0257 .303215179 -.43458113 .131365954
                    -.5598E-6 -.12158E-6 .638713E-6        0.0   380.0104   1.976235   2.027646   10.63166   10.90824    .185882
                         380.    .050669    .018352    .333395    .347825     .83996    .014484    .007991   889.6912   17.79382
                          0.0        0.0        0.0        0.0        1.0
  17000      .017  -443.31416  -218.4424 661.756558 -443.31416  -218.4424 661.756558 251956.727 -426313.43 174356.702        0.0
                          0.0        0.0 -430.69824 -210.98739 641.685631 251960.441 -426312.46 174352.016 -219.71085 -852.67302
                   1072.38387 -224.87175 -880.19896 1105.07071 678270.155 -600670.13 -77600.025 .350596566 -.41370955 .063112986
                   -.47525E-6 -.22868E-6 .732311E-6        0.0   380.0104   1.976235   2.027646   10.63166   10.90824    .185882
                         380.    .050669    .018352    .333395    .347825     .83996    .014484    .007991   889.6912   17.79382
                          0.0        0.0        0.0        0.0        1.0
  17500     .0175  -358.35899 -315.56018  673.91917 -358.35899 -315.56018  673.91917 303105.734 -414056.16  110950.43        0.0
                          0.0        0.0 -348.38572 -305.24427 653.629991 303108.891 -414054.45 110945.554 -43.141458 -958.87426
                   1002.01572 -42.798817 -989.47935 1032.27816 717161.898 -525006.59  -192155.3  .38934572 -.38265138 -.00669434
                   -.38372E-6  -.3072E-6 .690925E-6        0.0   380.0104   1.976235   2.027646   10.63166   10.90824    .185882
                         380.    .050669    .018352    .333395    .347825     .83996    .014484    .007991   889.6912   17.79382
                          0.0        0.0        0.0        0.0        1.0
  18000      .018   -264.5797 -404.90788 669.487577  -264.5797 -404.90788 669.487577 346791.273 -391603.46 44812.1901        0.0
                          0.0        0.0 -257.49316 -391.98583 649.478989 346793.795 -391601.04 44807.2448  134.49267 -1041.4648
                   906.972149 140.328187 -1074.3955 934.067273 738394.735 -436415.65 -301979.08 .418507672 -.34217095 -.07633672
                   -.28954E-6 -.45265E-6 .685395E-6        0.0   380.0104   1.976235   2.027646   10.63166   10.90824    .185882
                         380.    .050669    .018352    .333395    .347825     .83996    .014484    .007991   889.6912   17.79382
                          0.0        0.0        0.0        0.0        1.0
  18500     .0185  -164.28603 -484.28516 648.571182 -164.28603 -484.28516 648.571182 381937.653 -359508.18 -22429.472        0.0
                          0.0        0.0 -160.26054 -469.07525 629.335789 381939.485 -359505.12 -22434.368 308.814715  -1098.411
                   789.596326 319.999131 -1132.8563 812.857208 741445.835 -337078.71 -404367.12 .437364834 -.29326527 -.14409957
                   -.16907E-6 -.53344E-6 .702566E-6        0.0   380.0104   1.976235   2.027646   10.63166   10.90824    .185882
                         380.    .050669    .018352    .333395    .347825     .83996    .014484    .007991   889.6912   17.79382
                          0.0        0.0        0.0        0.0        1.0
  19000      .019  -59.945894 -551.73836  611.68425 -59.945894 -551.73836  611.68425 407679.472 -318560.62 -89118.851        0.0
                          0.0        0.0 -59.081643 -534.61455 593.696197 407680.557 -318556.98 -89123.572 475.532911 -1128.3108
                    652.77784 491.792462 -1163.4226 671.630144 726240.094 -229441.77 -496798.32 .445451659 -.23713793 -.20831373
                   -.66102E-7 -.62167E-6 .652217E-6        0.0   380.0104   1.976235   2.027646   10.63166   10.90824    .185882
                         380.    .050669    .018352    .333395    .347825     .83996    .014484    .007991   889.6912   17.79382
                          0.0        0.0        0.0        0.0        1.0
  19500     .0195  45.8691547 -605.60534 559.736189 45.8691547 -605.60534 559.736189 423382.863 -269769.04 -153613.82        0.0
                          0.0        0.0 43.5518925  -586.9898 543.437903  423383.18 -269764.92 -153618.26 630.541688 -1130.4277
                    499.88601 651.474499 -1165.3415 513.867035 693151.902 -116155.21 -576996.69 .442571253 -.17517211 -.26739914
                   .467341E-7 -.65409E-6 .543427E-6        0.0   380.0104   1.976235   2.027646   10.63166   10.90824    .185882
                         380.    .050669    .018352    .333395    .347825     .83996    .014484    .007991   889.6912   17.79382
                          0.0        0.0        0.0        0.0        1.0
  20000       .02  150.555159 -644.56051 494.005351 150.555159 -644.56051 494.005351 428661.165 -214334.85 -214326.32        0.0
                          0.0        0.0 145.112591 -624.91115 479.798563 428660.705 -214330.35 -214330.35 770.023746 -1104.7097
                   334.685972  795.11567 -1138.5659 343.450192 642996.013 -8.5292857 -642987.48  .42879266 -.10889267 -.31989999
                   .157383E-6  -.7054E-6 .491214E-6        0.0   380.0104   1.976235   2.027646   10.63166   10.90824    .185882
                         380.    .050669    .018352    .333395    .347825     .83996    .014484    .007991   889.6912   17.79382
                          0.0        0.0        0.0        0.0        1.0
  20500     .0205  251.533969 -667.64445 416.110484 251.533969 -667.64445 416.110484 423384.404 -153623.02 -269761.38        0.0
                          0.0        0.0 243.100871 -647.44553 404.344654  423383.18 -153618.26 -269764.92 890.546397 -1051.7902
                   161.243783 919.178422 -1083.7549 164.576514 577007.424 116138.365 -693145.79 .404455984 -.03993203 -.36452395
                   .252723E-6 -.68771E-6 .463362E-6        0.0   380.0104   1.976235   2.027646   10.63166   10.90824    .185882
                         380.    .050669    .018352    .333395    .347825     .83996    .014484    .007991   889.6912   17.79382
                          0.0        0.0        0.0        0.0        1.0
  21000      .021  346.319228 -674.28879 327.969566 346.319228 -674.28879 327.969566 407682.516 -89128.484 -318554.03        0.0
                          0.0        0.0 335.103309 -654.03769 318.934379 407680.557 -89123.572 -318556.98 989.140998 -972.97207
                    -16.16893 1020.60802 -1002.2584 -18.349662    496811. 229425.547 -726236.55 .370160113 .030011939 -.40017205
                   .337728E-6 -.67059E-6 .332861E-6        0.0   380.0104   1.976235   2.027646   10.63166   10.90824    .185882
[...]
                         380.    .050669    .018352    .333395    .347825     .83996    .014484    .007991   889.6912   17.79382
                          0.0        0.0        0.0        0.0        1.0
 113000      .113  -275122.16  -162723.7 437845.862 -275122.16  -162723.7 437845.862 -275122.16  -162723.7 437845.863        0.0
                          0.0        0.0 -306315.69 -117750.09 424065.778 -251960.44 -174352.02 426312.457  -188565.6 -541815.87
                   730381.469 -112398.47 -600569.56 712968.027 -112398.47 -600569.56 712968.027 162.890773 -321.75856 158.867786
                   -.29598E-3 -.16485E-3 .460804E-3        0.0   380.0104   1.976235   2.027646   10.63166   10.90824    .185882
                         380.    .050669    .018352    .333395    .347825     .83996    .014484    .007991   889.6912   17.79382
                          0.0        0.0        0.0        0.0        1.0
 113500     .1135  -202202.05 -230912.41  433114.46 -202202.05 -230912.41  433114.46 -202202.05 -230912.41  433114.46        0.0
                          0.0        0.0 -286019.44 -154991.96 441011.406 -194607.89 -233465.35  428073.24 -131027.48 -596003.37
                   727030.848 28710.3597 -664026.87  635316.51 28710.3608 -664026.87  635316.51 208.230563 -326.73579 118.505223
                   -.21536E-3 -.23854E-3 .424743E-3        0.0   380.0104   1.976235   2.027646   10.63166   10.90824    .185882
                         380.    .050669    .018352    .333395    .347825     .83996    .014484    .007991   889.6912   17.79382
                          0.0        0.0        0.0        0.0        1.0
 114000      .114  -135148.95 -287136.18 422285.134 -135148.95 -287136.18 422285.134 -135148.95 -287136.19 422285.135        0.0
                          0.0        0.0 -247558.24 -212270.07 459828.306 -132463.44   -286830.  419293.44 -35288.172 -672098.37
                   707386.545 151987.235 -709421.32 557434.084 151987.236 -709421.32 557434.084 218.898475 -306.20295 87.3044748
                   -.13287E-3 -.26918E-3 .460237E-3        0.0   380.0104   1.976235   2.027646   10.63166   10.90824    .185882
                         380.    .050669    .018352    .333395    .347825     .83996    .014484    .007991   889.6912   17.79382
                          0.0        0.0        0.0        0.0        1.0
 114500     .1145  -75086.238 -333044.78 408131.019 -75086.238 -333044.78 408131.019 -75086.237 -333044.78 408131.019        0.0
                          0.0        0.0 -126034.47 -303106.53 429141.001 -67057.308 -333131.94 400189.244 177072.059 -732247.53
                   555175.472 257958.543  -741175.8 483217.257 257958.545  -741175.8 483217.256  544.14876 -456.99232 -87.156437
                   -.72916E-4 -.30417E-3 .435382E-3        0.0   380.0104   1.976235   2.027646   10.63166   10.90824    .185882
                         380.    .050669    .018352    .333395    .347825     .83996    .014484    .007991   889.6912   17.79382
                          0.0        0.0        0.0        0.0        1.0
 115000      .115  8194.32109 -377589.16 369394.837 8194.32109 -377589.16 369394.837 8194.32258 -377589.16 369394.837        0.0
                          0.0        0.0 -26950.591  -362990.3 389940.887 .127058E-4 -371231.06  371231.06 336039.706 -752931.18
                   416891.478 385783.479   -746984. 361200.516 385783.482   -746984. 361200.514 743.969238  -515.3423 -228.62694
                   .861743E-5 -.37311E-3 .397235E-3        0.0   380.0104   1.976235   2.027646   10.63166   10.90824    .185882
                         380.    .050669    .018352    .333395    .347825     .83996    .014484    .007991   889.6912   17.79382
                          0.0        0.0        0.0        0.0        1.0
 115500     .1155  46468.1058 -396113.63 349645.527 46468.1058 -396113.63 349645.527 46468.1071 -396113.63 349645.527        0.0
                          0.0        0.0 45463.0555 -396791.63 351328.569 67057.3081 -400189.24 333131.936 442254.681 -748120.19
                   305865.514 442581.739 -745759.16 303177.422 442581.741 -745759.16  303177.42 658.819176 -390.07976 -268.73942
                   .427998E-4 -.40672E-3 .334829E-3        0.0   380.0104   1.976235   2.027646   10.63166   10.90824    .185882
                         380.    .050669    .018352    .333395    .347825     .83996    .014484    .007991   889.6912   17.79382
                          0.0        0.0        0.0        0.0        1.0
 116000      .116  161101.594 -442722.17 281620.571 161101.594 -442722.17 281620.571 161101.595 -442722.17 281620.571        0.0
                          0.0        0.0  187881.73 -463549.99 275668.261 132463.443 -419293.44 286829.997  651431.72 -739218.25
                   87786.5317 603823.759 -724342.74 120518.977 603823.761 -724342.74 120518.976 613.823554 -279.21009 -334.61346
                   .173025E-3 -.47662E-3  .27445E-3        0.0   380.0104   1.976235   2.027646   10.63166   10.90824    .185882
                         380.    .050669    .018352    .333395    .347825     .83996    .014484    .007991   889.6912   17.79382
                          0.0        0.0        0.0        0.0        1.0
 116500     .1165  185449.532 -425433.88 239984.345 185449.532 -425433.88 239984.345 185449.533 -425433.88 239984.344        0.0
                          0.0        0.0 304801.813 -497386.07 192584.259 194607.888 -428073.24 233465.353 802187.885 -689970.33
                   -112217.55 610883.409 -665418.22 54534.8122  610883.41 -665418.22  54534.811 336.050471 -60.063743 -275.98673
                   .202085E-3 -.45695E-3 .254825E-3        0.0   380.0104   1.976235   2.027646   10.63166   10.90824    .185882
                         380.    .050669    .018352    .333395    .347825     .83996    .014484    .007991   889.6912   17.79382
                          0.0        0.0        0.0        0.0        1.0
 117000      .117  258402.366 -434658.51 176256.146 258402.366 -434658.51 176256.146 258402.367 -434658.51 176256.145        0.0
                          0.0        0.0 311859.949 -461871.04 150011.091 251960.441 -426312.46 174352.016 773730.989 -611882.13
                   -161848.86 693060.877 -610914.66  -82146.22 693060.878 -610914.66 -82146.222 337.670054  -38.52284 -299.14721
                   .264923E-3 -.45686E-3 .191942E-3        0.0   380.0104   1.976235   2.027646   10.63166   10.90824    .185882
                         380.    .050669    .018352    .333395    .347825     .83996    .014484    .007991   889.6912   17.79382
                          0.0        0.0        0.0        0.0        1.0
 117500     .1175  339851.634 -437567.38 97715.7483 339851.634 -437567.38 97715.7483 339851.634 -437567.38 97715.7478        0.0
                          0.0        0.0 399950.102 -458294.02 58343.9192 303108.891 -414054.45 110945.554 858244.124 -516637.94
                   -341606.18 777419.016 -535283.13 -242135.89 777419.016 -535283.13 -242135.89 148.024171 114.869152 -262.89332
                   .350911E-3 -.44722E-3 .963435E-4        0.0   380.0104   1.976235   2.027646   10.63166   10.90824    .185882
                         380.    .050669    .018352    .333395    .347825     .83996    .014484    .007991   889.6912   17.79382
                          0.0        0.0        0.0        0.0        1.0
 118000      .118  371090.584 -406192.03  35101.445 371090.584 -406192.03  35101.445 371090.584 -406192.03 35101.4446        0.0
                          0.0        0.0 327550.936 -359639.52  32088.586 346793.795 -391601.04 44807.2447 687190.459 -391728.11
                   -295462.35 777282.613 -441293.47 -335989.14 777282.612 -441293.47 -335989.14 -79.145854 254.757631 -175.61178
                   .415654E-3 -.41585E-3 .366047E-4        0.0   380.0104   1.976235   2.027646   10.63166   10.90824    .185882
                         380.    .050669    .018352    .333395    .347825     .83996    .014484    .007991   889.6912   17.79382
                          0.0        0.0        0.0        0.0        1.0
 118500     .1185   363719.05 -350867.98 -12851.067  363719.05 -350867.98 -12851.067  363719.05 -350867.98 -12851.068        0.0
                          0.0        0.0  386466.61 -347121.92 -39344.687 381939.485 -359505.12 -22434.368 733588.533 -307777.24
                    -425811.3 714587.033 -338016.92 -376570.12 714587.032 -338016.91 -376570.12 -124.33343 263.250454 -138.91702
                   .370434E-3 -.34948E-3  -.1368E-4        0.0   380.0104   1.976235   2.027646   10.63166   10.90824    .185882
                         380.    .050669    .018352    .333395    .347825     .83996    .014484    .007991   889.6912   17.79382
                          0.0        0.0        0.0        0.0        1.0
 119000      .119  414393.599 -319525.54 -94868.057 414393.599 -319525.54 -94868.057 414393.599 -319525.54 -94868.057        0.0
                          0.0        0.0 403801.252 -297159.91 -106641.34 407680.557 -318556.98 -89123.572 700961.161 -190518.56
                    -510442.6 733919.142 -224657.49 -509261.66 733919.141 -224657.48 -509261.66 -201.97567 290.422841 -88.447174
                   .447771E-3  -.3611E-3 -.10128E-3        0.0   380.0104   1.976235   2.027646   10.63166   10.90824    .185882
                         380.    .050669    .018352    .333395    .347825     .83996    .014484    .007991   889.6912   17.79382
                          0.0        0.0        0.0        0.0        1.0
 119500     .1195  397096.762 -253308.28 -143788.48 397096.762 -253308.28 -143788.48 397096.762 -253308.28 -143788.48        0.0
                          0.0        0.0 339485.215 -209401.61  -130083.6  423383.18 -269764.92 -153618.26 548886.824 -79318.005
                   -469568.82 650405.039 -109519.79 -540885.25 650405.039 -109519.79 -540885.25 62.4743922 102.606798 -165.08119
                   .412372E-3  -.2552E-3 -.12805E-3        0.0   380.0104   1.976235   2.027646   10.63166   10.90824    .185882
                         380.    .050669    .018352    .333395    .347825     .83996    .014484    .007991   889.6912   17.79382
                          0.0        0.0        0.0        0.0        1.0
  % % % % % %   Suspended simulation;  plot data space exhausted;  SPY SPACE is required.   LIMBUF =  840000.
  % % % % % %   Suspended simulation;  plot data space exhausted;  SPY SPACE is required.   LIMBUF =  840000.
  +++  Time-sharing disabled.   Send  user-keyed interrupt to silence alarm.
   Current values.  INDBUF  INDBEG  LIMBUF  MFLUSH  NUMDCD  KCARD1  KCARD2
                    839994      50  840000    1007     230       1     231
Plot timespan now in memory (in sec) = 1.04985997E-01   1.19985000E-01
   ++++  Begin plot-data copy from memory to disk.   MFLUSH, INDBUF, N4, Tbeg,  Tend = 1008  839994       1  -1.00000E+00
1.00000E+19
 120000       .12  441392.769 -225244.56 -216148.21 441392.769 -225244.56 -216148.21 441392.769 -225244.56 -216148.21        0.0
                          0.0        0.0 306872.901 -142875.17 -163997.73 428660.705 -214330.35 -214330.35 449748.072 21122.5593
                   -470870.63 666637.333 -9096.3581 -657540.97 666637.333 -9096.3576 -657540.98 73.4571735 92.9743534 -166.43153
                   .474667E-3 -.23606E-3  -.2095E-3        0.0   380.0104   1.976235   2.027646   10.63166   10.90824    .185882
                         380.    .050669    .018352    .333395    .347825     .83996    .014484    .007991   889.6912   17.79382
                          0.0        0.0        0.0        0.0        1.0

Extrema of output variables follow.   Order and column positioning are the same as for the preceding time-step loop output.
Variable maxima :  494958.905  450181.71 455784.993 494958.905  450181.71 455784.993 494958.905  450181.71 512699.661        0.0
                          0.0        0.0 639317.647 503128.219 466232.135 428660.705 428660.703 428660.703 .1025226E7 747608.817
                   938540.755 820573.265 762813.516 823065.892 820573.266 762813.515 823065.892 927.123982 647.351743 646.215167
                   .541036E-3  .49684E-3 .502408E-3        0.0   380.0104   1.976235   2.027646   10.63166   10.90824    .185882
                         380.    .050669    .018352    .333395    .347825     .83996    .014484    .007991   889.6912   17.79382
                          0.0        0.0        0.0        0.0        1.0
Times of maxima :     .061318    .086815    .093359    .061318    .086815    .093359    .061318    .086815    .053766        0.0
                          0.0        0.0    .079631      .1069    .113405        0.0    .006667    .113333     .07963     .06447
                      .070631       .098    .064554    .071096       .098    .064554    .071096    .078083    .061762    .053373
                      .061307    .106402    .093355        0.0        0.0        0.0        0.0        0.0        0.0        0.0
                          0.0        0.0        0.0        0.0        0.0        0.0        0.0        0.0        0.0        0.0
                          0.0        0.0        0.0        0.0        0.0
Variable minima :  -474710.54 -455194.46 -463132.71 -474710.54 -455194.46 -463132.71 -474710.53 -455194.46 -463132.71        0.0
                          0.0        0.0 -615315.93 -504642.66 -488003.04 -428660.71  -428660.7  -428660.7 -980533.64 -759692.71
                   -981924.04 -805704.11 -762050.55 -878295.33 -805704.11 -762050.55 -878295.33 -767.06977 -878.25604 -511.38483
                    -.5172E-3 -.50268E-3 -.51033E-3        0.0   380.0104   1.976235   2.027646   10.63166   10.90824    .185882
                         380.    .050669    .018352    .333395    .347825     .83996    .014484    .007991   889.6912   17.79382
                          0.0        0.0        0.0        0.0        1.0
Times of minima :     .090506     .09647    .062965    .090506     .09647    .062965    .090506     .09647    .062965        0.0
                          0.0        0.0    .069941    .116557    .062799        .01    .016667    .103333    .069836    .114895
                      .061465     .10786    .115152    .061319     .10786    .115152    .061319    .068314    .071507    .078243
                       .07106    .096642    .062988        0.0        0.0        0.0        0.0        0.0        0.0        0.0
                          0.0        0.0        0.0        0.0        0.0        0.0        0.0        0.0        0.0        0.0
                          0.0        0.0        0.0        0.0        0.0

Blank card terminating all plot cards.            |BLANK PLOT

Memory storage figures for the preceding, now-completed data case.  -------------------------------  Present   Program
A value of  "-9999"  indicates that no figure is available.         28-Feb-22  19:59:50              figure     limit  (name)
     Size List 1.   Number of electric network nodes.                                                   37      6000  (LBUS)
     Size List 2.   Number of electric network branches.                                                39     10000  (LBRNCH)
     Size List 3.   Number of data values in R, L, C tables.                                            45    192000  (LDATA)
     Size List 4.   Number of electric network sources.                                                  3       900  (LEXCT)
     Size List 5.   Storage for [Y] and triangularized [Y].   No. times =    3     Factors =    66     189    420000  (LYMAT)
     Size List 6.   Number of entries in switch table.                  No. flops = 18                  21      1200  (LSWTCH)
     Size List 7.   Number of distinct ALPHANUMERIC data names plus program SPY variables.              25     15000  (LSIZE7)
     Size List 8.   History points of distributed lines.                                              4804    120000  (LPAST)
     Size List 9.   Number of nonlinear elements.                                                        0      2250  (LNONL)
     Size List 10.  Points of nonlinear characteristics.                                                 0      3800  (LCHAR)
     Size List 11.  Number of Type-59 S.M. outputs.                                                      0       720  (LSMOUT)
     Size List 12.  Total number of EMTP output variables.                                              55      2000  (LSIZ12)
     Size List 13.  Working space for batch/SPY plotting.                                            -9999     72800  (LSIZ13)
     Size List 14.  S.M./U.M. connections to TACS.                                                   -9999       510  (LBSTAC)
     Size List 15.  Character storage in bytes for MODELS.                                            3298     90000  (LCTACS)
     Size List 16.  Total number of Type-59 S.M. masses.                                                 0       800  (LIMASS)
     Size List 17.  Number of Type-59 Synchronous machines.                                              0        90  (LSYN)
     Size List 18.  Branch and switch power/energy outputs.                                              0       254  (MAXPE)
     Size List 19.  Total floating-point TACS table space.                                              23    120000  (LTACST)
     Size List 20.  Non-copied recursive convolution data.                                               0    100000  (LFSEM)
     Size List 21.  Total modal/phase [T] matrix storage.                                                9      3000  (LFD)
     Size List 22.  Total recursive convolution history.                                                 0     15000  (LHIST)
     Size List 23.  Giant vectors for renumbering, phasors;  also extrema accumulation.                  93    192000  (LSIZ23)
     Size List 24.  Peak phases of compensation for data.                                                0       120  (LCOMP)
     Size List 25.  Total table space for all U.M usage.                                             -9999     45000  (LSPCUM)
     Size List 26.  Square of max number of coupled phases.                                              9    260000  (LSIZ26)
     Size List 27.  Maximum number of MODELS top variables.                                             44       600  (LSIZ27)
     Size List 28.  MODELS.  Total work space is divided into INTEGER and REAL.  1st, REAL:           1780    210000  (LRTACS)
                             Second  and last,  statistics for INTEGER work space.                    6838         0  (LITACS)
     Size List 29.  RAM disk used by "TAPSAV" table saving (limit is "LABCOM" size LTLABL).          -9999       600  (LSIZ29)
     Size List 30.  Taku Noda frequency-dependent circuits.                                              0        19  (LSIZ30)
Timing figures characterizing central processor (CP) solution speed.  ----------------------------   CP sec  Wait sec  Real sec
     Data input time (through blank card ending branches) ....                                       0.016     0.000     0.016
     Node renumbering and phasor solution  ....                                                      0.016     0.000     0.016
     After phasor solution, but before time-step loop  ....                                          0.000     0.000     0.000
     Integration of equations (time-step loop)  ....                                                 1.078     0.000     1.078
     Plotting or STATISTICS termination overlays ....                                                0.000     0.000     0.000
                                                                                                    ---------------------------
                                                                                          Totals      1.109     0.000     1.109

