   ---   236   cards of disk file read into card cache cells  1   onward.
 Comment card is ignored.      |C   LBUS  LBRNCH   LDATA   LEXCT   LYMAT  LSWTCH
 Limit CIDEAL cards =   200    |CARDS        200 { Limit of CIDEAL will be 2 mor
 1st card (Lists  1-10).       |    6000   10000  192000     900  420000    120
 Comment card is ignored.      |C LSMOUT  LSIZ12  LSIZ13  LBSTAC  LCTACS  LIMASS
 2nd card (Lists 11-20).       |     720    2000   72800     510   90000     80
 Comment card is ignored.      |C    LFD   LHIST  LSIZ23   NCOMP  LSPCUM  LSIZ26
 3rd card (Lists 21-30).       |    3000   15000  192000     120   45000  26000
 4th card (Lists 31-32).       |     200     300     { Optional card for Lists
 Comment card is ignored.      |C  LWORK  LMARTI
 Supplemental offsets.         |  840000     742
 <===> Done with  "/"-card sorting by data class.    Remember that the source file appears different from interpreted input data.
Alternative Transients Program (ATP),  GNU Linux or DOS.  All rights reserved by Can/Am user group of Portland, Oregon, USA.
 Date (dd-mth-yy) and time of day (hh.mm.ss) = 28-Feb-22  19:04:55   Name of disk plot file is  \atpdraw6.3\bernal\energizacion.pl4
Consult the 860-page ATP Rule Book of the Can/Am EMTP User Group in Portland,  Oregon, USA.  Source code date is 12 August 2008.
Total size of LABCOM tables = 10913436 INTEGER words.  31 VARDIM  List Sizes follow:  6002  10K  192K  900  420K  1200  15K
  120K  2250  3800  720  2K  72800  510  90K  800  90  254  120K  100K  3K  15K  192K  120  45K  260K  600  210K  1100  60  200
--------------------------------------------------+--------------------------------------------------------------------------------
Descriptive interpretation of input data cards.   |  Input data card images are shown below, all 80 columns, character by character
                                                  0         1         2         3         4         5         6         7         8
                                                  012345678901234567890123456789012345678901234567890123456789012345678901234567890
--------------------------------------------------+--------------------------------------------------------------------------------
Comment card.   NUMDCD = 1.                       |C data:C:\ATP\ATPDRAW6.3\BERNAL\ENERGIZACION.ATP
Marker card preceding new EMTP data case.         |BEGIN NEW DATA CASE
Comment card.   NUMDCD = 3.                       |C --------------------------------------------------------
Comment card.   NUMDCD = 4.                       |C Generated by ATPDRAW  febrero, lunes 28, 2022
Comment card.   NUMDCD = 5.                       |C A Bonneville Power Administration program
Comment card.   NUMDCD = 6.                       |C by H. K. Høidalen at SEfAS/NTNU - NORWAY 1994-2016
Comment card.   NUMDCD = 7.                       |C --------------------------------------------------------
Comment card.   NUMDCD = 8.                       |C  dT  >< Tmax >< Xopt >< Copt ><Epsiln>
Misc. data.     1.000E-06   1.200E-01   5.000E+01 |   1.E-6     .12     50.
Misc. data.    500    1  0  1  1  0  0  0  0  0   |     500       1       0       1       1       0       0       0       0
  ///  Warning.  Nonzero XOPT or COPT differs from the power frequency of  6.00000000E+01  Hz.   Did the user really want this?
No TACS data,  but MODELS data begins (next).     |MODELS
      Another ordinary MODELS data card.          |OUTPUT
      Another ordinary MODELS data card.          |  AnVol
      Another ordinary MODELS data card.          |  LONG
      Another ordinary MODELS data card.          |  R0F
      Another ordinary MODELS data card.          |  R1F
      Another ordinary MODELS data card.          |  X0F
      Another ordinary MODELS data card.          |  X1F
      Another ordinary MODELS data card.          |  RDIVX
      Another ordinary MODELS data card.          |  RINSER
      Another ordinary MODELS data card.          |  CLOSE1
      Another ordinary MODELS data card.          |  RPpos
      Another ordinary MODELS data card.          |  RPcero
      Another ordinary MODELS data card.          |  LPpos
      Another ordinary MODELS data card.          |  LPcero
      Another ordinary MODELS data card.          |  CPpos
      Another ordinary MODELS data card.          |  CPcero
      Another ordinary MODELS data card.          |  Xp
      Another ordinary MODELS data card.          |  CR
      Another ordinary MODELS data card.          |  SIMET
      Another ordinary MODELS data card.          |  ENC1
      Another ordinary MODELS data card.          |  ENC2
      Another ordinary MODELS data card.          |  ENC1AS
      Another ordinary MODELS data card.          |  ENC2AS
      Another ordinary MODELS data card.          |MODEL DEFAULT
      Another ordinary MODELS data card.          |DATA AnVol,LONG,R0F,R1F,X0F,X1F,RDIVX,RINSER,CLOSE1,RPpos,RPcero,LPpos,LPcero
      Another ordinary MODELS data card.          |OUTPUT o1,o2,o3, o4, o5, o6, o7, o8, o9, o10, o11, o12, o13
      Another ordinary MODELS data card.          |VAR o1,o2,o3, o4, o5, o6, o7, o8, o9, o10, o11, o12, o13
      Another ordinary MODELS data card.          |INIT
      Another ordinary MODELS data card.          |  o1:=AnVol
      Another ordinary MODELS data card.          |  o2:=LONG
      Another ordinary MODELS data card.          |  o3:=R0F
      Another ordinary MODELS data card.          |  o4:=R1F
      Another ordinary MODELS data card.          |  o5:=X0F
      Another ordinary MODELS data card.          |  O6:=X1F
      Another ordinary MODELS data card.          |  o7:=RDIVX
      Another ordinary MODELS data card.          |  o8:=RINSER
      Another ordinary MODELS data card.          |  o9:=CLOSE1
      Another ordinary MODELS data card.          |  o10:=RPpos
      Another ordinary MODELS data card.          |  o11:=RPcero
      Another ordinary MODELS data card.          |  o12:=LPpos
      Another ordinary MODELS data card.          |  o13:=LPcero
      Another ordinary MODELS data card.          |
      Another ordinary MODELS data card.          |ENDINIT
      Another ordinary MODELS data card.          |EXEC
      Another ordinary MODELS data card.          |ENDEXEC
      Another ordinary MODELS data card.          |ENDMODEL
      Another ordinary MODELS data card.          |MODEL DEFAULT1
      Another ordinary MODELS data card.          |DATA CPpos,CPcero,Xp,CR,SIMET,ENC1,ENC2,ENC1AS,ENC2AS
      Another ordinary MODELS data card.          |OUTPUT o1, o2, o3, o4, o5, o6, o7, o8, o9
      Another ordinary MODELS data card.          |VAR o1, o2, o3, o4, o5, o6, o7, o8, o9
      Another ordinary MODELS data card.          |INIT
      Another ordinary MODELS data card.          |  o1:=CPpos
      Another ordinary MODELS data card.          |  o2:=CPcero
      Another ordinary MODELS data card.          |  o3:=Xp
      Another ordinary MODELS data card.          |  o4:=CR
      Another ordinary MODELS data card.          |  o5:=SIMET
      Another ordinary MODELS data card.          |  o6:=ENC1
      Another ordinary MODELS data card.          |  o7:=ENC2
      Another ordinary MODELS data card.          |  o8:=ENC1AS
      Another ordinary MODELS data card.          |  o9:=ENC2AS
      Another ordinary MODELS data card.          |
      Another ordinary MODELS data card.          |ENDINIT
      Another ordinary MODELS data card.          |EXEC
      Another ordinary MODELS data card.          |ENDEXEC
      Another ordinary MODELS data card.          |ENDMODEL
      Another ordinary MODELS data card.          |USE DEFAULT AS DEFAULT
      Another ordinary MODELS data card.          |DATA
      Another ordinary MODELS data card.          |  AnVol:=      0.0
      Another ordinary MODELS data card.          |  LONG:= 370.9314
      Another ordinary MODELS data card.          |  R0F:=  1.52274
      Another ordinary MODELS data card.          |  R1F:= 1.169631
      Another ordinary MODELS data card.          |  X0F:= 14.45741
      Another ordinary MODELS data card.          |  X1F:= 11.10487
      Another ordinary MODELS data card.          |  RDIVX:= 0.105326
      Another ordinary MODELS data card.          |  RINSER:=     400.
      Another ordinary MODELS data card.          |  CLOSE1:= 0.044605
      Another ordinary MODELS data card.          |  RPpos:= 0.024751
      Another ordinary MODELS data card.          |  RPcero:= 0.309242
      Another ordinary MODELS data card.          |  LPpos:= 0.330368
      Another ordinary MODELS data card.          |  LPcero:= 0.779208
      Another ordinary MODELS data card.          |OUTPUT
      Another ordinary MODELS data card.          |  AnVol:=o1
      Another ordinary MODELS data card.          |  LONG:=o2
      Another ordinary MODELS data card.          |  R0F:=o3
      Another ordinary MODELS data card.          |  R1F:=o4
      Another ordinary MODELS data card.          |  X0F:=o5
      Another ordinary MODELS data card.          |  X1F:=o6
      Another ordinary MODELS data card.          |  RDIVX:=o7
      Another ordinary MODELS data card.          |  RINSER:=o8
      Another ordinary MODELS data card.          |  CLOSE1:=o9
      Another ordinary MODELS data card.          |  RPpos:=o10
      Another ordinary MODELS data card.          |  RPcero:=o11
      Another ordinary MODELS data card.          |  LPpos:=o12
      Another ordinary MODELS data card.          |  LPcero:=o13
      Another ordinary MODELS data card.          |ENDUSE
      Another ordinary MODELS data card.          |USE DEFAULT1 AS DEF
      Another ordinary MODELS data card.          |DATA
      Another ordinary MODELS data card.          |  CPpos:= 0.010396
      Another ordinary MODELS data card.          |  CPcero:= 0.006593
      Another ordinary MODELS data card.          |  Xp:= 1269.967
      Another ordinary MODELS data card.          |  CR:= 25.39934
      Another ordinary MODELS data card.          |  SIMET:=       1.
      Another ordinary MODELS data card.          |  ENC1:=       1.
      Another ordinary MODELS data card.          |  ENC2:=      0.0
      Another ordinary MODELS data card.          |  ENC1AS:=      0.0
      Another ordinary MODELS data card.          |  ENC2AS:=      0.0
      Another ordinary MODELS data card.          |OUTPUT
      Another ordinary MODELS data card.          |  CPpos:=o1
      Another ordinary MODELS data card.          |  CPcero:=o2
      Another ordinary MODELS data card.          |  Xp:=o3
      Another ordinary MODELS data card.          |  CR:=o4
      Another ordinary MODELS data card.          |  SIMET:=o5
      Another ordinary MODELS data card.          |  ENC1:=o6
      Another ordinary MODELS data card.          |  ENC2:=o7
      Another ordinary MODELS data card.          |  ENC1AS:=o8
      Another ordinary MODELS data card.          |  ENC2AS:=o9
      Another ordinary MODELS data card.          |ENDUSE
      Another ordinary MODELS data card.          |RECORD
      Another ordinary MODELS data card.          |  DEFAULT.o1 AS AnVOL
      Another ordinary MODELS data card.          |  DEFAULT.o2 AS LONG
      Another ordinary MODELS data card.          |  DEFAULT.o3 AS R0F
      Another ordinary MODELS data card.          |  DEFAULT.o4 AS R1F
      Another ordinary MODELS data card.          |  DEFAULT.o5 AS X0F
      Another ordinary MODELS data card.          |  DEFAULT.o6 AS X1F
      Another ordinary MODELS data card.          |  DEFAULT.o7 AS RDIVX
      Another ordinary MODELS data card.          |  DEFAULT.o8 AS RINSER
      Another ordinary MODELS data card.          |  DEFAULT.o9 AS CLOSE1
      Another ordinary MODELS data card.          |  DEFAULT.o10 AS RPpos
      Another ordinary MODELS data card.          |  DEFAULT.o11 AS RPcero
      Another ordinary MODELS data card.          |  DEFAULT.o12 AS LPpos
      Another ordinary MODELS data card.          |  DEFAULT.o13 AS LPcero
      Another ordinary MODELS data card.          |  DEF.o1 AS CPpos
      Another ordinary MODELS data card.          |  DEF.o2 AS CPcero
      Another ordinary MODELS data card.          |  DEF.o3 AS Xp
      Another ordinary MODELS data card.          |  DEF.o4 AS CR
      Another ordinary MODELS data card.          |  DEF.o5 AS SIMET
      Another ordinary MODELS data card.          |  DEF.o6 AS ENC1
      Another ordinary MODELS data card.          |  DEF.o7 AS ENC2
      Another ordinary MODELS data card.          |  DEF.o8 AS ENC1AS
      Another ordinary MODELS data card.          |  DEF.o9 AS ENC2AS
Termination of data for Laurent Dube`s MODELS.    |ENDMODELS
Comment card.   NUMDCD = 153.                     |C        1         2         3         4         5         6         7         8
Comment card.   NUMDCD = 154.                     |C 345678901234567890123456789012345678901234567890123456789012345678901234567890
Optional blank card follows last of MODELS data.  |BLANK MODELS
Comment card.   NUMDCD = 156.                     |C < n1 >< n2 ><ref1><ref2>< R  >< L  >< C  >
Comment card.   NUMDCD = 157.                     |C < n1 >< n2 ><ref1><ref2>< R  >< A  >< B  ><Leng><><>0
1st of coupled R-L.   1.52270E+00  4.60194E-02    |51IFUENASB1A              1.522714.457408995
2nd coil. 1.170E+00 3.535E-02 0.000E+00 0.000E+00 |52IFUENBSB1B              1.169611.104867785
Zca, Zcc= 1.177E-01 3.557E-03 1.287E+00 3.891E-02 |53IFUENCSB1C
Series R-L-C.   1.000E+09  0.000E+00  0.000E+00   |  SB1A                      1.E9                                               0
Series R-L-C.   1.000E+09  0.000E+00  0.000E+00   |  SB1B                      1.E9                                               0
Series R-L-C.   1.000E+09  0.000E+00  0.000E+00   |  SB1C                      1.E9                                               0
Series R-L-C.   1.270E+01  2.021E+00  0.000E+00   |  RSNSHA                    12.7634.98                                         0
Series R-L-C.   1.270E+01  2.021E+00  0.000E+00   |  RSNSHB                    12.7634.98                                         0
Series R-L-C.   1.270E+01  2.021E+00  0.000E+00   |  RSNSHC                    12.7634.98                                         0
Series R-L-C.   1.000E+09  0.000E+00  0.000E+00   |  RSNNHA                    1.E9                                               0
Series R-L-C.   1.000E+09  0.000E+00  0.000E+00   |  RSNNHB                    1.E9                                               0
Series R-L-C.   1.000E+09  0.000E+00  0.000E+00   |  RSNNHC                    1.E9                                               0
Series R-L-C.   1.000E+09  0.000E+00  0.000E+00   |  SE2A                      1.E9                                               0
Series R-L-C.   1.000E+09  0.000E+00  0.000E+00   |  SE2B                      1.E9                                               0
Series R-L-C.   1.000E+09  0.000E+00  0.000E+00   |  SE2C                      1.E9                                               0
Series R-L-C.   2.500E+02  0.000E+00  3.000E-10   |  X0001B                    250.       .0003                                   0
Series R-L-C.   2.500E+02  0.000E+00  3.000E-10   |  X0002B                    250.       .0003                                   0
Series R-L-C.   1.000E-06  0.000E+00  0.000E+00   |  X0001ALN1A               1.E-6                                               0
Series R-L-C.   1.000E-06  0.000E+00  0.000E+00   |  SB1A  X0002A             1.E-6                                               0
Series R-L-C.   1.000E-06  0.000E+00  0.000E+00   |  X0001BLN1B               1.E-6                                               0
Series R-L-C.   1.000E-06  0.000E+00  0.000E+00   |  SB1B  X0002B             1.E-6                                               0
Series R-L-C.   1.000E-06  0.000E+00  0.000E+00   |  X0001CLN1C               1.E-6                                               0
Series R-L-C.   1.000E-06  0.000E+00  0.000E+00   |  SB1C  X0002C             1.E-6                                               0
Series R-L-C.   4.000E+02  0.000E+00  0.000E+00   |  XX0005X0002A              400.                                               0
Series R-L-C.   4.000E+02  0.000E+00  0.000E+00   |  XX0003X0002B              400.                                               0
Series R-L-C.   4.000E+02  0.000E+00  0.000E+00   |  XX0004X0002C              400.                                               0
Series R-L-C.   2.500E+02  0.000E+00  3.000E-10   |  X0001A                    250.       .0003                                   0
Series R-L-C.   1.000E+06  0.000E+00  0.000E+00   |  X0001AX0002A              1.E6                                               0
Series R-L-C.   1.000E+06  0.000E+00  0.000E+00   |  X0001BX0002B              1.E6                                               0
Series R-L-C.   1.000E+06  0.000E+00  0.000E+00   |  X0001CX0002C              1.E6                                               0
Series R-L-C.   2.500E+02  0.000E+00  3.000E-10   |  X0002C                    250.       .0003                                   0
Series R-L-C.   2.500E+02  0.000E+00  3.000E-10   |  X0002A                    250.       .0003                                   0
Series R-L-C.   2.500E+02  0.000E+00  3.000E-10   |  X0001C                    250.       .0003                                   0
Series R-L-C.   1.250E+02  0.000E+00  6.000E-10   |  X0001AX0002A              125.       .0006                                   0
Series R-L-C.   1.250E+02  0.000E+00  6.000E-10   |  X0001BX0002B              125.       .0006                                   0
Series R-L-C.   1.250E+02  0.000E+00  6.000E-10   |  X0001CX0002C              125.       .0006                                   0
 3.092E-01 7.792E-01 6.590E-03 6.135E+02 1.500E-03|-1LN1A  VFF2A             .30924.77921.00659370.93 0 0                         0
 2.475E-02 3.304E-01 1.040E-02 3.180E+02 1.227E-03|-2LN1B  VFF2B             .02475.33037 .0104370.93 0 0                         0
3rd or later transposed distributed phase.        |-3LN1C  VFF2C                                                                  0
Blank card ending branches.  IBR, NTOT = 39  31   |BLANK BRANCH
Comment card.   NUMDCD = 198.                     |C < n 1>< n 2>< Tclose ><Top/Tde ><   Ie   ><Vf/CLOP ><  type  >
Switch.  -1.00E+00  1.00E+01  0.00E+00  0.00E+00  |  LN1A  COMPA        -1.       10.                                             0
Switch.  -1.00E+00  1.00E+01  0.00E+00  0.00E+00  |  LN1B  COMPB        -1.       10.                                             0
Switch.  -1.00E+00  1.00E+01  0.00E+00  0.00E+00  |  LN1C  COMPC        -1.       10.                                             0
Switch.  -1.00E+00  1.00E+01  0.00E+00  0.00E+00  |  VFF2A RSNNHA       -1.       10.                                             0
Switch.  -1.00E+00  1.00E+01  0.00E+00  0.00E+00  |  VFF2B RSNNHB       -1.       10.                                             0
Switch.  -1.00E+00  1.00E+01  0.00E+00  0.00E+00  |  VFF2C RSNNHC       -1.       10.                                             0
Switch.   2.00E+00 -1.00E+00  0.00E+00  0.00E+00  |  VFF2A SE2A          2.       -1.                                             0
Switch.   2.00E+00 -1.00E+00  0.00E+00  0.00E+00  |  VFF2B SE2B          2.       -1.                                             0
Switch.   2.00E+00 -1.00E+00  0.00E+00  0.00E+00  |  VFF2C SE2C          2.       -1.                                             0
Switch.   4.46E-02  1.00E+03  0.00E+00  0.00E+00  |  X0001BXX0003.044604799      1.E3                                             0
Switch.   4.46E-02  1.00E+03  0.00E+00  0.00E+00  |  X0001CXX0004.044604799      1.E3                                             0
Switch.   5.21E-02  1.00E+03  0.00E+00  0.00E+00  |  XX0005X0002A.052104799      1.E3                                             0
Switch.   5.21E-02  1.00E+03  0.00E+00  0.00E+00  |  XX0003X0002B.052104799      1.E3                                             0
Switch.   5.21E-02  1.00E+03  0.00E+00  0.00E+00  |  XX0004X0002C.052104799      1.E3                                             0
Switch.   4.46E-02  1.00E+03  0.00E+00  0.00E+00  |  X0001AXX0005.044604799      1.E3                                             0
Permanently-closed switch used for metering.      |  VFUENAIFUENA                                        MEASURING                1
Permanently-closed switch used for metering.      |  VFUENBIFUENB                                        MEASURING                1
Permanently-closed switch used for metering.      |  VFUENCIFUENC                                        MEASURING                1
Permanently-closed switch used for metering.      |  COMPA RSNSHA                                        MEASURING                1
Permanently-closed switch used for metering.      |  COMPB RSNSHB                                        MEASURING                1
Permanently-closed switch used for metering.      |  COMPC RSNSHC                                        MEASURING                1
Blank card ending switches.   KSWTCH = 21.        |BLANK SWITCH
Comment card.   NUMDCD = 221.                     |C < n 1><>< Ampl.  >< Freq.  ><Phase/T0><   A1   ><   T1   >< TSTART >< TSTOP  >
Source.   4.29E+05  5.00E+01  0.00E+00 -1.00E+00  |14VFUENA  428660.705       50.                                     -1.      100.
Source.   4.29E+05  5.00E+01 -1.20E+02 -1.00E+00  |14VFUENB  428660.705       50.     -120.                           -1.      100.
Source.   4.29E+05  5.00E+01 -2.40E+02 -1.00E+00  |14VFUENC  428660.705       50.     -240.                           -1.      100.
Blank card ends electric sources.  KCONST = 3     |BLANK SOURCE
Pi-equivalent branches of distributed circuits are added to the table of List Size 3 between indices  40   and  45.

Sinusoidal steady-state phasor solution, branch by branch.   All flows are away from a bus,  and the real part,  magnitude,  or  "P"
is printed above the imaginary part,  the angle,  or  "Q".   The first solution frequency  =  5.00000000E+01  Hertz.
  Bus K                        Phasor  node  voltage              Phasor  branch  current               Power flow       Power loss
             Bus M         Rectangular            Polar          Rectangular            Polar            P  and  Q        P  and  Q

 IFUENA                    428660.705       428660.705        .429423261043  .44581140252006      92038.438911046  .11622771730818
                                  0.0              0.0      .11976422459188       15.5835483      -25669.10847367        1.1035341

            SB1A      428661.53271243  428661.53274054       -.429423261043  .44581140252006      -92038.32268333
                      -4.908764774762       -0.0006561      -.1197642245919     -164.4164517      25670.212007724

 IFUENB                  -214330.3525       428660.705      -.1109927695651  .44581140251706      92038.438910752  .11622771730978
                      -371231.0601341     -120.0000000      -.4317735653308     -104.4164517      -25669.10847233        1.1035341

            SB1B      -214335.0174712  428661.53274054      .11099276956509  .44581140251706      -92038.32268303
                      -371229.3225718     -120.0006561      .43177356533084       75.5835483       25670.21200639

 IFUENC                  -214330.3525       428660.705      -.3184304914846  .44581140252077      92038.438911075  .11622771730956
                      371231.06013415      120.0000000      .31200934074228      135.5835483      -25669.10847413        1.1035341

            SB1C      -214326.5152412  428661.53274054      .31843049148457  .44581140252077      -92038.32268336
                      371234.23133653      119.9993439      -.3120093407423      -44.4164517      25670.212008191

 SB1A                 428661.53271243  428661.53274054      .42866153271E-3  .42866153274E-3      91.875354825734  91.875354825734
                      -4.908764774762       -0.0006561      -.4908764775E-8       -0.0006561      .8375038266E-19        0.0000000

            TERRA                 0.0              0.0      -.4286615327E-3  .42866153274E-3                  0.0
                                  0.0              0.0      .49087647748E-8      179.9993439                  0.0

 SB1B                 -214335.0174712  428661.53274054      -.2143350175E-3  .42866153274E-3      91.875354825734  91.875354825734
                      -371229.3225718     -120.0006561      -.3712293226E-3     -120.0006561      .3781697178E-14        0.0000000

            TERRA                 0.0              0.0      .21433501747E-3  .42866153274E-3                  0.0
                                  0.0              0.0      .37122932257E-3       59.9993439                  0.0

 SB1C                 -214326.5152412  428661.53274054      -.2143265152E-3  .42866153274E-3      91.875354825734  91.875354825734
                      371234.23133653      119.9993439      .37123423134E-3      119.9993439       .142247325E-15        0.0000000

            TERRA                 0.0              0.0      .21432651524E-3  .42866153274E-3                  0.0
                                  0.0              0.0      -.3712342313E-3      -60.0006561                  0.0

 RSNSHA               -85.60644633723  1450.7129765168      2.2770707460729  2.2842024987695      33.131639701693  33.131639701693
                      1448.1849593818       93.3829843      .18036039688235        4.5287832      1656.5298092741     1656.5298093

            TERRA                 0.0              0.0      -2.277070746073  2.2842024987695                  0.0
                                  0.0              0.0      -.1803603968824     -175.4712168                  0.0

 RSNSHB               1296.9681873718  1450.7129765168      -.9823386874997  2.2842024987695      33.131639701693  33.131639701693
                      -649.9551224352      -26.6170157      -2.062181310755     -115.4712168      1656.5298092741     1656.5298093

            TERRA                 0.0              0.0      .98233868749971  2.2842024987695                  0.0
                                  0.0              0.0      2.0621813107547       64.5287832                  0.0

 RSNSHC               -1211.361741035  1450.7129765168      -1.294732058573  2.2842024987695      33.131639701693  33.131639701693
                      -798.2298369466     -146.6170157      1.8818209138724      124.5287832      1656.5298092741     1656.5298093

            TERRA                 0.0              0.0      1.2947320585732  2.2842024987695                  0.0
                                  0.0              0.0      -1.881820913872      -55.4712168                  0.0

 RSNNHA               -83.22768276155  1565.5128148918      -.8322768276E-7  .15655128149E-5       .0012254151868   .0012254151868
                      1563.2989242025       93.0474641      .15632989242E-5       93.0474641      .7345363839E-20        0.0000000

            TERRA                 0.0              0.0      .83227682762E-7  .15655128149E-5                  0.0
                                  0.0              0.0      -.1563298924E-5      -86.9525359                  0.0

 RSNNHB                1395.470423449  1565.5128148918      .13954704234E-5  .15655128149E-5       .0012254151868   .0012254151868
                      -709.5721745316      -26.9525359      -.7095721745E-6      -26.9525359       .468515099E-19        0.0000000

            TERRA                 0.0              0.0      -.1395470423E-5  .15655128149E-5                  0.0
                                  0.0              0.0      .70957217453E-6      153.0474641                  0.0

 RSNNHC               -1312.242740687  1565.5128148918      -.1312242741E-5  .15655128149E-5       .0012254151868   .0012254151868
                      -853.7267496708     -146.9525359      -.8537267497E-6     -146.9525359      .1567010952E-19        0.0000000

            TERRA                 0.0              0.0      .13122427407E-5  .15655128149E-5                  0.0
                                  0.0              0.0      .85372674967E-6       33.0474641                  0.0

 X0001B               1296.9681872259  1450.7129765707      .61259707266E-4  .13672647685E-3       .2336766184E-5   .2336766184E-5
                      -649.9551228465      -26.6170158      .12223492847E-3       63.3816342      -.0991754370774       -0.0991754

            TERRA                 0.0              0.0      -.6125970727E-4  .13672647685E-3                  0.0
                                  0.0              0.0      -.1222349285E-3     -116.6183658                  0.0

 X0002B               -214335.0174711  428661.53274011      .03498706339278  .04040039765277      .20402401631321  .20402401631321
                      -371229.3225713     -120.0006561      -.0202014238521      -30.0020061       -8659.04818817    -8659.0481882

            TERRA                 0.0              0.0      -.0349870633928  .04040039765277                  0.0
                                  0.0              0.0      .02020142385209      149.9979939                  0.0

 X0001A               -85.60644590807  1450.7129765707      .42915942799482  .43643751217554      39.103138524282  .95238851021E-7
                      1448.1849594612       93.3829842       .0793718299974       10.4782924      314.14848455217              0.0

            LN1A      -85.60644633723  1450.7129765168      -.4291594279948  .43643751217554      -39.10313842904
                      1448.1849593818       93.3829843      -.0793718299974     -169.5217076      -314.1484845522

 SB1A                 428661.53271243  428661.53274054      .42899046093225  .44539452878684      91945.560303901   .9918814925E-7
                      -4.908764774762       -0.0006561      .11976422964466       15.5985058      -25670.21202843              0.0

            X0002A      428661.532712  428661.53274011      -.4289904609323  .44539452878684       -91945.5603038
                      -4.908764894526       -0.0006561      -.1197642296447     -164.4014942      25670.212028433

 X0001B               1296.9681872259  1450.7129765707      -.1458415681554   .4364375744452      39.103255243327  .95238878194E-7
                      -649.9551228465      -26.6170158       -.411348992202     -109.5216873         314.14851554              0.0

            LN1B      1296.9681873718  1450.7129765168      .14584156815545   .4364375744452      -39.10325514809
                      -649.9551224352      -26.6170157      .41134899220197       70.4783127        -314.14851554

 SB1B                 -214335.0174712  428661.53274054      -.1107982825488  .44543526609267      91954.671214867  .99206289406E-7
                      -371229.3225718     -120.0006561      -.4314351826906     -104.4030593       -25670.0480235        0.0000000

            X0002B    -214335.0174711  428661.53274011      .11079828254879  .44543526609267      -91954.67121477
                      -371229.3225713     -120.0006561      .43143518269062       75.5969407      25670.048023495

 X0001C               -1211.361741318  1450.7129765707      -.2833178314177  .43643757210138       39.10319820719  .95238877187E-7
                      -798.2298366147     -146.6170158      .33197704851773      130.4783023      314.14852092627              0.0

            LN1C      -1211.361741035  1450.7129765168      .28331783141766  .43643757210138      -39.10319811195
                      -798.2298369466     -146.6170157      -.3319770485177      -49.5216977      -314.1485209263

 SB1C                 -214326.5152412  428661.53274054      -.3182212822139  .44540616614019      91948.055586531  .99193322001E-7
                      371234.23133653      119.9993439       .3116438165307      135.5982985      -25670.54995206              0.0

            X0002C    -214326.5152409  428661.53274011      .31822128221393  .44540616614019      -91948.05558643
                      371234.23133622      119.9993439      -.3116438165307      -44.4017015      25670.549952056

 XX0005                 428661.532712  428661.53274011                  0.0              0.0                  0.0              0.0
                      -4.908764894526       -0.0006561                  0.0              0.0                  0.0              0.0

            X0002A      428661.532712  428661.53274011                  0.0              0.0                  0.0
                      -4.908764894526       -0.0006561                  0.0              0.0                  0.0

 XX0003               -214335.0174711  428661.53274011                  0.0              0.0                  0.0              0.0
                      -371229.3225713     -120.0006561                  0.0              0.0                  0.0              0.0

            X0002B    -214335.0174711  428661.53274011                  0.0              0.0                  0.0
                      -371229.3225713     -120.0006561                  0.0              0.0                  0.0

 XX0004               -214326.5152409  428661.53274011                  0.0              0.0                  0.0              0.0
                      371234.23133622      119.9993439                  0.0              0.0                  0.0              0.0

            X0002C    -214326.5152409  428661.53274011                  0.0              0.0                  0.0
                      371234.23133622      119.9993439                  0.0              0.0                  0.0

 X0001A               -85.60644590807  1450.7129765707      -.1364884069E-3  .13672647685E-3       .2336766184E-5   .2336766184E-5
                      1448.1849594612       93.3829842      -.8065001515E-5     -176.6183658      -.0991754370774       -0.0991754

            TERRA                 0.0              0.0      .13648840692E-3  .13672647685E-3                  0.0
                                  0.0              0.0      .80650015146E-5        3.3816342                  0.0

 X0001A               -85.60644590807  1450.7129765707      -.4287471391579  .42874960153622      19.403933626431  91913.110408733
                      1448.1849594612       93.3829842      .00145309372436      179.8058160      -310.3903820756        0.0000000

            X0002A      428661.532712  428661.53274011      .42874713915791  .42874960153622      91893.706475107
                      -4.908764894526       -0.0006561      -.0014530937244       -0.1941840      310.39038207559

 X0001B               1296.9681872259  1450.7129765707      .21563198565833  .42874960153622      19.403933626429  91913.110408733
                      -649.9551228465      -26.6170158      .37057936744848       59.8058160      -310.3903820756        0.0000000

            X0002B    -214335.0174711  428661.53274011      -.2156319856583  .42874960153622      91893.706475107
                      -371229.3225713     -120.0006561      -.3705793674485     -120.1941840      310.39038207559

 X0001C               -1211.361741318  1450.7129765707      .21311515349958  .42874960153622      19.403933626428  91913.110408733
                      -798.2298366147     -146.6170158      -.3720324611728      -60.1941840      -310.3903820756        0.0000000

            X0002C    -214326.5152409  428661.53274011      -.2131151534996  .42874960153622      91893.706475107
                      371234.23133622      119.9993439      .37203246117283      119.8058160      310.39038207559

 X0002C               -214326.5152409  428661.53274011      -.0349884779449  .04040039765277      .20402401631299  .20402401631299
                      371234.23133622      119.9993439      -.0201989737759     -150.0020061       -8659.04818817    -8659.0481882

            TERRA                 0.0              0.0      .03498847794491  .04040039765277                  0.0
                                  0.0              0.0      .02019897377592       29.9979939                  0.0

 X0002A                 428661.532712  428661.53274011      .14145521349E-5  .04040039765277      .20402401631276  .20402401631276
                      -4.908764894526       -0.0006561      .04040039762801       89.9979939       -8659.04818817    -8659.0481882

            TERRA                 0.0              0.0      -.1414552135E-5  .04040039765277                  0.0
                                  0.0              0.0       -.040400397628      -90.0020061                  0.0

 X0001C               -1211.361741318  1450.7129765707      .75228699652E-4  .13672647685E-3       .2336766184E-5   .2336766184E-5
                      -798.2298366147     -146.6170158       -.114169927E-3      -56.6183658      -.0991754370774       -0.0991754

            TERRA                 0.0              0.0      -.7522869965E-4  .13672647685E-3                  0.0
                                  0.0              0.0      .11416992696E-3      123.3816342                  0.0

 X0001A               -85.60644590807  1450.7129765707      -.2758059181E-3  .08081739588251      -58.50712243282  .40821571732691
                      1448.1849594612       93.3829842       -.080816925259      -90.1955340      -3.658933861487   -17325.2131361

            X0002A      428661.532712  428661.53274011       .2758059181E-3  .08081739588251      58.915338150145
                      -4.908764894526       -0.0006561      .08081692525904       89.8044660      -17321.55420224

 X0001B               1296.9681872259  1450.7129765707       -.069851607371  .08081739588251      -58.50712243282    .408215717326
                      -649.9551228465      -26.6170158      .04064731756112      149.8044660      -3.658933861487   -17325.2131361

            X0002B    -214335.0174711  428661.53274011      .06985160737103  .08081739588251      58.915338150144
                      -371229.3225713     -120.0006561      -.0406473175611      -30.1955340      -17321.55420224

 X0001C               -1211.361741318  1450.7129765707      .07012741328913  .08081739588251      -58.50712243282  .40821571732685
                      -798.2298366147     -146.6170158      .04016960769793       29.8044660      -3.658933861487   -17325.2131361

            X0002C    -214326.5152409  428661.53274011      -.0701274132891  .08081739588251      58.915338150145
                      371234.23133622      119.9993439      -.0401696076979     -150.1955340      -17321.55420224

 LN1A                 -85.60644633723  1450.7129765168      -1.847911317022  1.8506687703738      5.9716011485066  5.9703757333209
                      1448.1849593818       93.3829843      -.1009884253749     -176.8718951        -1342.3813179    -1342.3813179

            VFF2A     -83.22768276155  1565.5128148918      .83227682223E-7  .15655128136E-5      -.0012254151858
                      1563.2989242025       93.0474641      -.1563298923E-5      -86.9525359      -.367439172E-12

 LN1B                 1296.9681873718  1450.7129765168      .83649711664805  1.8506687703738      5.9716011485075  5.9703757333208
                      -649.9551224352      -26.6170157      1.6508323571691       63.1281049        -1342.3813179    -1342.3813179

            VFF2B      1395.470423449  1565.5128148918      -.1395470424E-5  .15655128148E-5      -.0012254151868
                      -709.5721745316      -26.9525359      .70957217329E-6      153.0474641      .1072703066E-11

 LN1C                 -1211.361741035  1450.7129765168      1.0114142003737  1.8506687703738      5.9716011485077  5.9703757333205
                      -798.2298369466     -146.6170157      -1.549843931794      -56.8718951        -1342.3813179    -1342.3813179

            VFF2C     -1312.242740687  1565.5128148918      .13122427407E-5  .15655128153E-5      -.0012254151871
                      -853.7267496708     -146.9525359      .85372675031E-6       33.0474641      .3925807061E-12
     Total network loss  P-loss  by summing injections =   2.761059392571E+05

Output for steady-state phasor switch currents.
      Node-K    Node-M            I-real            I-imag            I-magn          Degrees        Power            Reactive
      LN1A      COMPA         2.27707075E+00    1.80360440E-01    2.28420251E+00       4.5288    3.31316704E+01    1.65652982E+03
      LN1B      COMPB        -9.82338340E-01   -2.06218132E+00    2.28420236E+00    -115.4712    3.31318695E+01    1.65652971E+03
      LN1C      COMPC        -1.29473175E+00    1.88182094E+00    2.28420234E+00     124.5288    3.31314465E+01    1.65652970E+03
      VFF2A     RSNNHA       -8.32276824E-08    1.56329892E-06    1.56551281E-06      93.0475    1.22541519E-03    2.63810264E-13
      VFF2B     RSNNHB        1.39547042E-06   -7.09572173E-07    1.56551281E-06     -26.9525    1.22541519E-03   -8.34560345E-13
      VFF2C     RSNNHC       -1.31224274E-06   -8.53726750E-07    1.56551281E-06    -146.9525    1.22541519E-03   -8.65958673E-13
      VFF2A     SE2A              Open              Open              Open             Open          Open              Open
      VFF2B     SE2B              Open              Open              Open             Open          Open              Open
      VFF2C     SE2C              Open              Open              Open             Open          Open              Open
      X0001B    XX0003            Open              Open              Open             Open          Open              Open
      X0001C    XX0004            Open              Open              Open             Open          Open              Open
      XX0005    X0002A            Open              Open              Open             Open          Open              Open
      XX0003    X0002B            Open              Open              Open             Open          Open              Open
      XX0004    X0002C            Open              Open              Open             Open          Open              Open
      X0001A    XX0005            Open              Open              Open             Open          Open              Open
      VFUENA    IFUENA        4.29423261E-01    1.19764225E-01    4.45811403E-01      15.5835    9.20384389E+04   -2.56691085E+04
      VFUENB    IFUENB       -1.10992770E-01   -4.31773565E-01    4.45811403E-01    -104.4165    9.20384389E+04   -2.56691085E+04
      VFUENC    IFUENC       -3.18430491E-01    3.12009341E-01    4.45811403E-01     135.5835    9.20384389E+04   -2.56691085E+04
      COMPA     RSNSHA        2.27707075E+00    1.80360440E-01    2.28420251E+00       4.5288    3.31316704E+01    1.65652982E+03
      COMPB     RSNSHB       -9.82338340E-01   -2.06218132E+00    2.28420236E+00    -115.4712    3.31318695E+01    1.65652971E+03
      COMPC     RSNSHC       -1.29473175E+00    1.88182094E+00    2.28420234E+00     124.5288    3.31314465E+01    1.65652970E+03

Solution at nodes with known voltage.   Nodes that are shorted together by switches are shown as a group of names, with the printed
result applying to the composite group.   The entry "MVA" is  SQRT( P**2 + Q**2 )  in units of power,  while  "P.F."  is the
associated power factor.
              Node                Source  node  voltage             Injected  source  current              Injected  source  power
              name         Rectangular            Polar          Rectangular            Polar            P  and  Q    MVA and P.F.

               VFUENA
              IFUENA       428660.705       428660.705      .42942326104338  .44581140252105      92038.438911127  95550.915050856
                                  0.0              0.0      .11976422459421       15.5835483      -25669.10847417        0.9632397

               VFUENB
              IFUENB     -214330.3525       428660.705       -.110992769563  .44581140251593      92038.438910412   95550.91504976
                      -371231.0601341     -120.0000000      -.4317735653302     -104.4164517      -25669.10847265        0.9632397

               VFUENC
              IFUENC     -214330.3525       428660.705      -.3184304914841  .44581140252097      92038.438911169  95550.915050839
                      371231.06013415      120.0000000      .31200934074307      135.5835483      -25669.10847396        0.9632397

  +++  Node  "COMPC "  has no connected linear branches.  Add (to ground) the conductance  G = 1.00000000E-18  mhos.
  +++  Node  "COMPB "  has no connected linear branches.  Add (to ground) the conductance  G = 1.00000000E-18  mhos.
  +++  Node  "COMPA "  has no connected linear branches.  Add (to ground) the conductance  G = 1.00000000E-18  mhos.
Card of names for time-step loop output.          |  LN1A  LN1B  LN1C  COMPA COMPB COMPC SB1A  SB1B  SB1C  SE2A  SE2B  SE2C  VFF2A
Card of names for time-step loop output.          |  VFF2B VFF2C IFUENAIFUENBIFUENC
Card of names for time-step loop output.          |-5VFF2A VFF2B VFF2B VFF2C VFF2C VFF2A LN1A  LN1B  LN1B  LN1C  LN1C  LN1A
Card of names for time-step loop output.          |-5SB1A  SB1B  SB1B  SB1C  SB1C  SB1A
Blank card ending requests for output variables.  |BLANK OUTPUT

Column headings for the  55   EMTP output variables follow.  These are divided among the 5 possible classes as follows ....
  First  27     output variables are electric-network voltage differences (upper voltage minus lower voltage);
  Next   6     output variables are branch currents (flowing from the upper node to the lower node);
  Next   22     output variables belong to MODELS (with "MODELS" an internally-added upper name of pair).
   Step      Time      LN1A       LN1B       LN1C       COMPA      COMPB      COMPC      SB1A       SB1B       SB1C       SE2A
 

                       SE2B       SE2C       VFF2A      VFF2B      VFF2C      IFUENA     IFUENB     IFUENC     VFF2A      VFF2B
                                                                                                               VFF2B      VFF2C

                       VFF2C      LN1A       LN1B       LN1C       SB1A       SB1B       SB1C       VFUENA     VFUENB     VFUENC
                       VFF2A      LN1B       LN1C       LN1A       SB1B       SB1C       SB1A       IFUENA     IFUENB     IFUENC

                       COMPA      COMPB      COMPC      MODELS     MODELS     MODELS     MODELS     MODELS     MODELS     MODELS
                       RSNSHA     RSNSHB     RSNSHC     ANVOL      LONG       R0F        R1F        X0F        X1F        RDIVX

                       MODELS     MODELS     MODELS     MODELS     MODELS     MODELS     MODELS     MODELS     MODELS     MODELS
                       RINSER     CLOSE1     RPPOS      RPCERO     LPPOS      LPCERO     CPPOS      CPCERO     XP         CR

                       MODELS     MODELS     MODELS     MODELS     MODELS
                       SIMET      ENC1       ENC2       ENC1AS     ENC2AS
 ***      Phasor I(0) =  2.2770708E+00                     Switch  "LN1A  "  to  "COMPA "  closed in the steady-state.
 ***      Phasor I(0) = -9.8233834E-01                     Switch  "LN1B  "  to  "COMPB "  closed in the steady-state.
 ***      Phasor I(0) = -1.2947318E+00                     Switch  "LN1C  "  to  "COMPC "  closed in the steady-state.
 ***      Phasor I(0) = -8.3227682E-08                     Switch  "VFF2A "  to  "RSNNHA"  closed in the steady-state.
 ***      Phasor I(0) =  1.3954704E-06                     Switch  "VFF2B "  to  "RSNNHB"  closed in the steady-state.
 ***      Phasor I(0) = -1.3122427E-06                     Switch  "VFF2C "  to  "RSNNHC"  closed in the steady-state.
 ***      Phasor I(0) =  4.2942326E-01                     Switch  "VFUENA"  to  "IFUENA"  closed in the steady-state.
 ***      Phasor I(0) = -1.1099277E-01                     Switch  "VFUENB"  to  "IFUENB"  closed in the steady-state.
 ***      Phasor I(0) = -3.1843049E-01                     Switch  "VFUENC"  to  "IFUENC"  closed in the steady-state.
 ***      Phasor I(0) =  2.2770708E+00                     Switch  "COMPA "  to  "RSNSHA"  closed in the steady-state.
 ***      Phasor I(0) = -9.8233834E-01                     Switch  "COMPB "  to  "RSNSHB"  closed in the steady-state.
 ***      Phasor I(0) = -1.2947318E+00                     Switch  "COMPC "  to  "RSNSHC"  closed in the steady-state.
      0       0.0  -85.606446 1296.96819 -1211.3617 -85.606446 1296.96819 -1211.3617 428661.533 -214335.02 -214326.52        0.0
                          0.0        0.0 -83.227683 1395.47042 -1312.2427 428660.705 -214330.35 -214330.35 -1478.6981 2707.71316
                   -1229.0151 -1382.5746 2508.32993 -1125.7553  642996.55   -8.50223 -642988.05 .429423261 -.11099277 -.31843049
                   2.27707075 -.98233834 -1.2947318        0.0   370.9314    1.52274   1.169631   14.45741   11.10487    .105326
                         400.    .044605    .024751    .309242    .330368    .779208    .010396    .006593   1269.967   25.39934
                          1.0        1.0        0.0        0.0        0.0
    500     .5E-3  -311.09879 1382.67586 -1071.5771 -311.09879 1382.67586 -1071.5771 423384.763 -153623.14 -269761.63        0.0
                          0.0        0.0 -326.75684 1489.29139 -1162.5346  423383.18 -153618.26 -269764.92 -1816.0482 2651.82595
                   -835.77772 -1693.7746 2454.25292 -760.47828 577007.898 116138.491 -693146.39  .40540823 -.04208442 -.36332381
                   2.22082166 -.64764824 -1.5731733        0.0   370.9314    1.52274   1.169631   14.45741   11.10487    .105326
                         400.    .044605    .024751    .309242    .330368    .779208    .010396    .006593   1269.967   25.39934
                          1.0        1.0        0.0        0.0        0.0
   1000     .1E-2  -528.93036 1434.33723 -905.40687 -528.93036 1434.33723 -905.40687  407682.86 -89128.545 -318554.31        0.0
                          0.0        0.0 -562.24016 1546.44108 -984.20092 407680.557 -89123.572 -318556.98 -2108.6812 2530.64201
                   -421.96077 -1963.2676 2339.74409 -376.47651 496811.405  229425.77 -726237.17 .371404507 .027863284 -.39926779
                    2.1098885 -.29701046  -1.812878        0.0   370.9314    1.52274   1.169631   14.45741   11.10487    .105326
                         400.    .044605    .024751    .309242    .330368    .779208    .010396    .006593   1269.967   25.39934
                          1.0        1.0        0.0        0.0        0.0
   1500     .0015  -733.73811 1450.68054 -716.94243 -733.73811 1450.68054 -716.94243 381942.451 -22439.313 -359503.14        0.0
                          0.0        0.0  -783.8787 1565.51197 -781.63327 381939.485 -22434.368 -359505.12 -2349.3907 2347.14524
                   2.24542692 -2184.4187 2167.62297 16.7956806 404381.764 337063.824 -741445.59 .328254609 .097125383 -.42537999
                   1.94700303 .060940582 -2.0079435        0.0   370.9314    1.52274   1.169631   14.45741   11.10487    .105326
                         400.    .044605    .024751    .309242    .330368    .779208    .010396    .006593   1269.967   25.39934
                          1.0        1.0        0.0        0.0        0.0
   2000      .002  -920.47882 1431.30332 -510.82449 -920.47882 1431.30332 -510.82449  346797.35 44802.4494  -391599.8        0.0
                          0.0        0.0 -986.21665 1546.03532 -559.81867 346793.795 44807.2448 -391601.04  -2532.252 2105.85399
                   426.397986 -2351.7821 1942.12781  409.65433 301994.901 436402.249 -738397.15   .2770219  .16399598 -.44101788
                   1.73617577 .417391125 -2.1535668        0.0   370.9314    1.52274   1.169631   14.45741   11.10487    .105326
                         400.    .044605    .024751    .309242    .330368    .779208    .010396    .006593   1269.967   25.39934
                          1.0        1.0        0.0        0.0        0.0
   2500     .0025  -1084.5536 1376.68228  -292.1287 -1084.5536 1376.68228  -292.1287 303112.956 110941.023 -414053.98        0.0
                          0.0        0.0 -1164.2701 1488.48986 -324.21974 303108.891 110945.554 -414054.45   -2652.76  1812.7096
                   840.050376 -2461.2359 1668.81098  792.42487 192171.933 524995.002 -717166.93 .218967785 .226828558 -.44579634
                   1.48259818 .763564044 -2.2461621        0.0   370.9314    1.52274   1.169631   14.45741   11.10487    .105326
                         400.    .044605    .024751    .309242    .330368    .779208    .010396    .006593   1269.967   25.39934
                          1.0        1.0        0.0        0.0        0.0
   3000      .003  -1221.9245 1288.16349  -66.23904 -1221.9245 1288.16349  -66.23904 251964.909 174347.863 -426312.77        0.0
                          0.0        0.0 -1313.6554 1394.29285 -80.637467 251960.441 174352.016 -426312.46 -2707.9482 1474.93032
                   1233.01792 -2510.0879 1354.40253 1155.68541 77617.0462 600660.635 -678277.68 .155520781 .284076449 -.43959723
                   1.19251404 1.09093541 -2.2834495        0.0   370.9314    1.52274   1.169631   14.45741   11.10487    .105326
                         400.    .044605    .024751    .309242    .330368    .779208    .010396    .006593   1269.967   25.39934
                          1.0        1.0        0.0        0.0        0.0
   3500     .0035  -1329.2068  1167.9255 161.281311 -1329.2068  1167.9255 161.281311 194612.639 233461.686 -428074.32        0.0
                          0.0        0.0 -1430.6941 1265.76373  164.93037 194607.888 233465.353 -428073.24 -2696.4578 1100.83336
                   1595.62447 -2497.1323 1006.64419 1490.48812 -38849.047  661536.01 -622686.96 .088246566 .334328319 -.42257488
                   .873066275 1.39144445 -2.2645107        0.0   370.9314    1.52274   1.169631   14.45741   11.10487    .105326
                         400.    .044605    .024751    .309242    .330368    .779208    .010396    .006593   1269.967   25.39934
                          1.0        1.0        0.0        0.0        0.0
   4000      .004  -1403.7596 1018.92925  384.83034 -1403.7596 1018.92925  384.83034 132468.367 286826.903 -419295.27        0.0
                          0.0        0.0 -1512.5041 1106.06715  406.43695 132463.443 286829.997 -419293.44 -2618.5713 699.630201
                   1918.94105 -2422.6888 634.098905 1788.58993 -154358.54 706122.174 -551763.64  .01879903 .376348118 -.39514715
                   .532120705 1.65769156 -2.1898122        0.0   370.9314    1.52274   1.169631   14.45741   11.10487    .105326
                         400.    .044605    .024751    .309242    .330368    .779208    .010396    .006593   1269.967   25.39934
                          1.0        1.0        0.0        0.0        0.0
   4500     .0045  -1443.7472 844.843601 598.903573 -1443.7472 844.843601 598.903573 67062.2859  333129.49 -400191.78        0.0
                          0.0        0.0 -1557.0714 919.135643 637.935787 67057.3081 333131.936 -400189.24 -2476.2071 281.199857
                   2195.00722 -2288.5908 245.940028 2042.65075  -266067.2 733321.265 -467254.06 -.05111184 .409101196 -.35798936
                   .178072598 1.88312076 -2.0611932        0.0   370.9314    1.52274   1.169631   14.45741   11.10487    .105326
                         400.    .044605    .024751    .309242    .330368    .779208    .010396    .006593   1269.967   25.39934
                          1.0        1.0        0.0        0.0        0.0
   5000      .005   -1448.184 649.954635 798.229369  -1448.184 649.954635 798.229369 4.90321869 371229.325 -371234.23        0.0
                          0.0        0.0 -1563.2988 709.572103 853.726694 -.45661E-7  371231.06 -371231.06 -2272.8709 -144.15459
                   2417.02549 -2098.1386 -148.27473 2246.41337 -371224.42 742463.554 -371239.13 -.11976566 .431781592 -.31201593
                    -.1803603  2.0621812 -1.8818209        0.0   370.9314    1.52274   1.169631   14.45741   11.10487    .105326
                         400.    .044605    .024751    .309242    .330368    .779208    .010396    .006593   1269.967   25.39934
                          1.0        1.0        0.0        0.0        0.0
   5500     .0055  -1416.9638 439.062664 977.901114 -1416.9638 439.062664 977.901114 -67052.587 400188.256 -333135.67        0.0
                          0.0        0.0 -1531.0324 482.536486 1048.49593 -67057.308 400189.244 -333131.94 -2013.5689 -565.95944
                   2579.52834 -1856.0264 -538.83845 2394.86489 -467240.84 733323.926 -266083.08 -.18546745 .443828594 -.25836114
                   -.53435206 2.19046398 -1.6561118        0.0   370.9314    1.52274   1.169631   14.45741   11.10487    .105326
                         400.    .044605    .024751    .309242    .330368    .779208    .010396    .006593   1269.967   25.39934
                          1.0        1.0        0.0        0.0        0.0
   6000      .006  -1350.8519 217.358847 1133.49302 -1350.8519 217.358847 1133.49302 -132459.03 419293.227  -286834.2        0.0
                          0.0        0.0 -1461.0668 243.619171 1217.44766 -132463.44  419293.44   -286830.  -1704.686 -973.82849
                    2678.5145 -1568.2107 -916.13418 2484.34489 -551752.25 706127.428 -154375.18 -.24660422 .444947961 -.19834374
                   -.87518638 2.26481024 -1.3896237        0.0   370.9314    1.52274   1.169631   14.45741   11.10487    .105326
                         400.    .044605    .024751    .309242    .330368    .779208    .010396    .006593   1269.967   25.39934
                          1.0        1.0        0.0        0.0        0.0
   6500     .0065  -1251.4777 -9.6969706 1261.17469 -1251.4777 -9.6969706 1261.17469 -194603.89 428073.809 -233469.92        0.0
                          0.0        0.0 -1355.1251  -1.296783 1356.42189 -194607.89  428073.24 -233465.35 -1353.8283 -1357.7187
                     2711.547 -1241.7807 -1270.8717 2512.65241  -622677.7  661543.73 -38866.033 -.30166874 .435111219 -.13344247
                   -1.1944706 2.28338935 -1.0889187        0.0   370.9314    1.52274   1.169631   14.45741   11.10487    .105326
                         400.    .044605    .024751    .309242    .330368    .779208    .010396    .006593   1269.967   25.39934
                          1.0        1.0        0.0        0.0        0.0
   7000      .007   -1121.288 -236.51401 1357.80203  -1121.288 -236.51401 1357.80203 -251956.96 426313.793 -174356.84        0.0
                          0.0        0.0 -1215.8154 -246.18096 1461.99633 -251960.44 426312.457 -174352.02 -969.63442 -1708.1773
                   2677.81171 -884.77401  -1594.316 2479.09006 -678270.75  600670.63 77600.1182 -.34930497 .414560486 -.06525552
                   -1.4843432 2.24574385 -.76140076        0.0   370.9314    1.52274   1.169631   14.45741   11.10487    .105326
                         400.    .044605    .024751    .309242    .330368    .779208    .010396    .006593   1269.967   25.39934
                          1.0        1.0        0.0        0.0        0.0
   7500     .0075  -963.48838 -457.50736 1420.99574 -963.48838 -457.50736 1420.99574 -303106.01 414056.518 -110950.51        0.0
                          0.0        0.0 -1046.5683 -485.00332 1531.57162 -303108.89 414054.446 -110945.55 -561.56498 -2016.5749
                   2578.13993 -505.98102 -1878.5031 2384.48412 -717162.53 525007.026 192155.502 -.38833912 .383801385 .004537733
                   -1.7376662 2.15280066 -.41513447        0.0   370.9314    1.52274   1.169631   14.45741   11.10487    .105326
                         400.    .044605    .024751    .309242    .330368    .779208    .010396    .006593   1269.967   25.39934
                          1.0        1.0        0.0        0.0        0.0
   8000      .008   -781.9646 -667.23527 1449.19987  -781.9646 -667.23527 1449.19987 -346791.58 391603.792 -44812.214        0.0
                          0.0        0.0 -851.55139  -711.8832 1563.43459  -346793.8  391601.04 -44807.245 -139.66818 -2275.3178
                   2414.98598 -114.72933 -2116.4351 2231.16447 -738395.37 436416.006 301979.365 -.41781404 .343593306 .074220733
                    -1.948202  2.0068484 -.05864629        0.0   370.9314    1.52274   1.169631   14.45741   11.10487    .105326
                         400.    .044605    .024751    .309242    .330368    .779208    .010396    .006593   1269.967   25.39934
                          1.0        1.0        0.0        0.0        0.0
   8500     .0085  -581.18642 -860.53356 1441.71998 -581.18642 -860.53356 1441.71998 -381937.99 359508.485 22429.5092        0.0
                          0.0        0.0 -635.56645 -921.23417 1556.80061 -381939.48 359505.117 22434.3679  285.66772 -2478.0348
                   2192.36706 279.347134 -2302.2535  2022.9064 -741446.48 337078.976 404367.503 -.43699832 .294923484 .142074839
                   -2.1107668 1.81148084 .299285808        0.0   370.9314    1.52274   1.169631   14.45741   11.10487    .105326
                         400.    .044605    .024751    .309242    .330368    .779208    .010396    .006593   1269.967   25.39934
                          1.0        1.0        0.0        0.0        0.0
   9000      .009  -366.09724 -1032.6428 1398.74003 -366.09724 -1032.6428 1398.74003 -407679.83 318560.884  89118.942        0.0
                          0.0        0.0 -403.93209 -1107.9011 1511.83321 -407680.56 318556.985  89123.572 703.969045 -2619.7343
                    1915.7653 666.545554 -2431.3828 1764.83727 -726240.71 229441.942 496798.768 -.44542284 .238991961 .206430884
                   -2.2213573 1.57150859 .649848778        0.0   370.9314    1.52274   1.169631   14.45741   11.10487    .105326
                         400.    .044605    .024751    .309242    .330368    .779208    .010396    .006593   1269.967   25.39934
                          1.0        1.0        0.0        0.0        0.0
   9500     .0095  -141.99356 -1179.3249 1321.31847 -141.99356 -1179.3249 1321.31847 -423383.23 269769.258 153613.971        0.0
                          0.0        0.0 -162.35074 -1267.2883 1429.63903 -423383.18 269764.922 153618.258 1104.93756 -2696.9273
                   1591.98977 1037.33134 -2500.6434 1463.31204 -693152.49 116155.287 576997.201  -.4428799 .177175825 .265704078
                   -2.2772507 1.29284072   .9844101        0.0   370.9314    1.52274   1.169631   14.45741   11.10487    .105326
                         400.    .044605    .024751    .309242    .330368    .779208    .010396    .006593   1269.967   25.39934
                          1.0        1.0        0.0        0.0        0.0
  10000       .01  85.6066503 -1296.9682 1211.36158 85.6066503 -1296.9682 1211.36158 -428661.53 214335.016 214326.514        0.0
                          0.0        0.0 83.2276639 -1395.4704 1312.24269 -428660.71 214330.353 214330.352 1478.69802  -2707.713
                   1229.01503 1382.57489 -2508.3298 1125.75493 -642996.55 8.50239425 642988.043 -.42943164 .110996959 .318434681
                   -2.2770707 .982338684 1.29473206        0.0   370.9314    1.52274   1.169631   14.45741   11.10487    .105326
                         400.    .044605    .024751    .309242    .330368    .779208    .010396    .006593   1269.967   25.39934
                          1.0        1.0        0.0        0.0        0.0
  10500     .0105  311.098529 -1382.6757 1071.57715 311.098529 -1382.6757 1071.57715 -423384.77 153623.138  269761.63        0.0
                          0.0        0.0 326.756809 -1489.2913 1162.53452 -423383.18 153618.258 269764.922 1816.04814 -2651.8258
                   835.777711 1693.77421 -2454.2528 760.478623 -577007.91 -116138.49 693146.398 -.40540935  .04208498  .36332437
                   -2.2208216 .647648325 1.57317329        0.0   370.9314    1.52274   1.169631   14.45741   11.10487    .105326
                         400.    .044605    .024751    .309242    .330368    .779208    .010396    .006593   1269.967   25.39934
                          1.0        1.0        0.0        0.0        0.0
  11000      .011  528.930314 -1434.3372 905.406842 528.930314 -1434.3372 905.406842 -407682.86 89128.5449 318554.315        0.0
                          0.0        0.0 562.240123  -1546.441 984.200893 -407680.56  89123.572 318556.985 2108.68114 -2530.6419
                    421.96077 1963.26747  -2339.744 376.476528  -496811.4 -229425.77 726237.174 -.37140482 -.02786313 .399267945
                   -2.1098885 .297010619 1.81287796        0.0   370.9314    1.52274   1.169631   14.45741   11.10487    .105326
                         400.    .044605    .024751    .309242    .330368    .779208    .010396    .006593   1269.967   25.39934
                          1.0        1.0        0.0        0.0        0.0
  11500     .0115  733.738033 -1450.6805 716.942445 733.738033 -1450.6805 716.942445 -381942.45 22439.3132 359503.137        0.0
                          0.0        0.0 783.879171 -1565.5122 781.633006 -381939.48 22434.3679 359505.117 2349.39135 -2347.1452
                    -2.246165 2184.41851 -2167.6229 -16.795587 -404381.76 -337063.82 741445.588 -.32825474 -.09712532 .425380058
                   -1.9470029 -.06094057 2.00794347        0.0   370.9314    1.52274   1.169631   14.45741   11.10487    .105326
                         400.    .044605    .024751    .309242    .330368    .779208    .010396    .006593   1269.967   25.39934
                          1.0        1.0        0.0        0.0        0.0
  12000      .012  920.478749 -1431.3033 510.824505 920.478749 -1431.3033 510.824505 -346797.35 -44802.449 391599.799        0.0
                          0.0        0.0 986.216479 -1546.0352 559.818728  -346793.8 -44807.245  391601.04 2532.25169 -2105.8539
                   -426.39775   2351.782 -1942.1278 -409.65424  -301994.9 -436402.25  738397.15 -.27702185   -.163996 .441017856
                   -1.7361757 -.41739104  2.1535667        0.0   370.9314    1.52274   1.169631   14.45741   11.10487    .105326
                         400.    .044605    .024751    .309242    .330368    .779208    .010396    .006593   1269.967   25.39934
                          1.0        1.0        0.0        0.0        0.0
  12500     .0125  1084.55345 -1376.6822 292.128768 1084.55345 -1376.6822 292.128768 -303112.95 -110941.03 414053.975        0.0
                          0.0        0.0 1164.27005 -1488.4898 324.219777 -303108.89 -110945.55 414054.446 2652.75987 -1812.7096
                   -840.05027 2461.23568  -1668.811 -792.42469 -192171.92   -524995. 717166.923  -.2189676 -.22682865 .445796249
                   -1.4825981 -.76356402 2.24616202        0.0   370.9314    1.52274   1.169631   14.45741   11.10487    .105326
                         400.    .044605    .024751    .309242    .330368    .779208    .010396    .006593   1269.967   25.39934
                          1.0        1.0        0.0        0.0        0.0
  13000      .013  1221.92457 -1288.1636 66.2389781 1221.92457 -1288.1636 66.2389781  -251964.9 -174347.87 426312.767        0.0
                          0.0        0.0 1313.65535 -1394.2928 80.6374858 -251960.44 -174352.02 426312.457 2707.94818 -1474.9303
                   -1233.0179 2510.08812 -1354.4025 -1155.6856 -77617.031 -600660.64 678277.666 -.15552249 -.28407559 .439598083
                   -1.1925141 -1.0909354 2.28344939        0.0   370.9314    1.52274   1.169631   14.45741   11.10487    .105326
                         400.    .044605    .024751    .309242    .330368    .779208    .010396    .006593   1269.967   25.39934
                          1.0        1.0        0.0        0.0        0.0
  13500     .0135   1329.2065 -1167.9254 -161.28114  1329.2065 -1167.9254 -161.28114 -194612.64 -233461.69 428074.324        0.0
                          0.0        0.0 1430.69213 -1265.7628 -164.92937 -194607.89 -233465.35  428073.24 2696.45489 -1100.8334
                   -1595.6215 2497.13185 -1006.6442 -1490.4876  38849.048 -661536.01 622686.962 -.08824727 -.33432797 .422575236
                   -.87306626 -1.3914444 2.26451066        0.0   370.9314    1.52274   1.169631   14.45741   11.10487    .105326
                         400.    .044605    .024751    .309242    .330368    .779208    .010396    .006593   1269.967   25.39934
                          1.0        1.0        0.0        0.0        0.0
  14000      .014   1403.7595 -1018.9292 -384.83027  1403.7595 -1018.9292 -384.83027 -132468.37  -286826.9  419295.27        0.0
                          0.0        0.0  1512.5042 -1106.0672 -406.43697 -132463.44   -286830.  419293.44 2618.57143 -699.63025
                   -1918.9412 2422.68873 -634.09895 -1788.5898 154358.537 -706122.17 551763.637 -.01879914 -.37634806 .395147203
                   -.53212065 -1.6576915 2.18981216        0.0   370.9314    1.52274   1.169631   14.45741   11.10487    .105326
                         400.    .044605    .024751    .309242    .330368    .779208    .010396    .006593   1269.967   25.39934
                          1.0        1.0        0.0        0.0        0.0
  14500     .0145  1443.74712  -844.8436 -598.90352 1443.74712  -844.8436 -598.90352 -67062.286 -333129.49 400191.776        0.0
                          0.0        0.0 1557.07171 -919.13581  -637.9359 -67057.308 -333131.94 400189.244 2476.20751 -281.19991
                   -2195.0076 2288.59072 -245.94008 -2042.6506 266067.204 -733321.27 467254.061  .05111179 -.40910117 .357989382
                   -.17807261 -1.8831207 2.06119318        0.0   370.9314    1.52274   1.169631   14.45741   11.10487    .105326
                         400.    .044605    .024751    .309242    .330368    .779208    .010396    .006593   1269.967   25.39934
                          1.0        1.0        0.0        0.0        0.0
  % % % % % %   Suspended simulation;  plot data space exhausted;  SPY SPACE is required.   LIMBUF =  840000.
  % % % % % %   Suspended simulation;  plot data space exhausted;  SPY SPACE is required.   LIMBUF =  840000.
  +++  Time-sharing disabled.   Send  user-keyed interrupt to silence alarm.
   Current values.  INDBUF  INDBEG  LIMBUF  MFLUSH  NUMDCD  KCARD1  KCARD2
                    839994      50  840000    1000     230       1     231
Plot timespan now in memory (in sec) = 0.00000000E+00   1.49990000E-02
   ++++  Begin plot-data copy from memory to disk.   MFLUSH, INDBUF, N4, Tbeg,  Tend = 1001  839994       1  -1.00000E+00
1.00000E+19
  15000      .015  1448.18502 -649.95519 -798.22983 1448.18502 -649.95519 -798.22983 -4.9050574 -371229.32 371234.229        0.0
                          0.0        0.0 1563.29883 -709.57217 -853.72666 -.61533E-6 -371231.06  371231.06   2272.871 144.154488
                   -2417.0255  2098.1402 148.274639 -2246.4148 371224.419 -742463.55 371239.135 .119763964 -.43178074  .31201678
                   .180360417 -2.0621812 1.88182089        0.0   370.9314    1.52274   1.169631   14.45741   11.10487    .105326
                         400.    .044605    .024751    .309242    .330368    .779208    .010396    .006593   1269.967   25.39934
                          1.0        1.0        0.0        0.0        0.0
  15500     .0155  1416.96349 -439.06256 -977.90093 1416.96349 -439.06256 -977.90093 67052.5876 -400188.26 333135.669        0.0
                          0.0        0.0 1531.03238 -482.53652 -1048.4959 67057.3081 -400189.24 333131.936 2013.56889 565.959345
                   -2579.5282 1856.02605 538.838365 -2394.8644 467240.844 -733323.93 266083.081 .185467951 -.44382884 .258360892
                   .534352146 -2.1904639 1.65611183        0.0   370.9314    1.52274   1.169631   14.45741   11.10487    .105326
                         400.    .044605    .024751    .309242    .330368    .779208    .010396    .006593   1269.967   25.39934
                          1.0        1.0        0.0        0.0        0.0
  16000      .016  1350.85193 -217.35893  -1133.493 1350.85193 -217.35893  -1133.493  132459.03 -419293.23 286834.199        0.0
                          0.0        0.0 1461.06703 -243.61933 -1217.4477 132463.443 -419293.44 286829.997 1704.68636 973.828373
                   -2678.5147 1568.21086 916.134068 -2484.3449 551752.259 -706127.43 154375.169 .246604113 -.44494791 .198343794
                   .875186378 -2.2648102 1.38962391        0.0   370.9314    1.52274   1.169631   14.45741   11.10487    .105326
                         400.    .044605    .024751    .309242    .330368    .779208    .010396    .006593   1269.967   25.39934
                          1.0        1.0        0.0        0.0        0.0
  16500     .0165   1251.4777 9.69692126 -1261.1746  1251.4777 9.69692126 -1261.1746  194603.89 -428073.81  233469.92        0.0
                          0.0        0.0 1355.12524 1.29665426 -1356.4219 194607.888 -428073.24 233465.353 1353.82859 1357.71855
                   -2711.5471 1241.78078 1270.87155 -2512.6523   622677.7 -661543.73  38866.031 .301668534 -.43511111 .133442579
                   1.19447066 -2.2833893 1.08891866        0.0   370.9314    1.52274   1.169631   14.45741   11.10487    .105326
                         400.    .044605    .024751    .309242    .330368    .779208    .010396    .006593   1269.967   25.39934
                          1.0        1.0        0.0        0.0        0.0
  17000      .017  1121.28799 236.513975  -1357.802 1121.28799 236.513975  -1357.802 251956.956 -426313.79 174356.837        0.0
                          0.0        0.0 1215.81525 246.180966 -1461.9962 251960.441 -426312.46 174352.016 969.634281 1708.17718
                   -2677.8115 884.774015 1594.31594   -2479.09 678270.749 -600670.63 -77600.119 .349304927 -.41456047 .065255538
                   1.48434312 -2.2457438 .761400775        0.0   370.9314    1.52274   1.169631   14.45741   11.10487    .105326
                         400.    .044605    .024751    .309242    .330368    .779208    .010396    .006593   1269.967   25.39934
                          1.0        1.0        0.0        0.0        0.0
  17500     .0175  963.488314 457.507325 -1420.9956 963.488314 457.507325 -1420.9956 303106.003 -414056.51 110950.511        0.0
                          0.0        0.0 1046.56839 485.003205 -1531.5716 303108.891 -414054.45 110945.554 561.565184  2016.5748
                     -2578.14 505.980989 1878.50296  -2384.484 717162.518 -525007.03 -192155.49 .388339824 -.38380174 -.00453808
                   1.73766601 -2.1528006 .415134507        0.0   370.9314    1.52274   1.169631   14.45741   11.10487    .105326
                         400.    .044605    .024751    .309242    .330368    .779208    .010396    .006593   1269.967   25.39934
                          1.0        1.0        0.0        0.0        0.0
  18000      .018  781.964736  667.23515 -1449.1999 781.964736  667.23515 -1449.1999 346791.581 -391603.79 44812.2126        0.0
                          0.0        0.0 851.551453 711.883113 -1563.4346 346793.795 -391601.04 44807.2448  139.66834 2275.31768
                    -2414.986 114.729586 2116.43504 -2231.1646 738395.374 -436416.01 -301979.37 .417813252 -.34359291 -.07422034
                   1.94820197 -2.0068484 .058646315        0.0   370.9314    1.52274   1.169631   14.45741   11.10487    .105326
                         400.    .044605    .024751    .309242    .330368    .779208    .010396    .006593   1269.967   25.39934
                          1.0        1.0        0.0        0.0        0.0
  18500     .0185  581.186319 860.533549 -1441.7199 581.186319 860.533549 -1441.7199 381937.993 -359508.48 -22429.509        0.0
                          0.0        0.0  635.56639 921.234131 -1556.8005 381939.485 -359505.12 -22434.368 -285.66774 2478.03465
                   -2192.3669 -279.34723 2302.25342 -2022.9062 741446.477 -337078.98  -404367.5 .436998294 -.29492347 -.14207482
                    2.1107666 -1.8114808 -.29928575        0.0   370.9314    1.52274   1.169631   14.45741   11.10487    .105326
                         400.    .044605    .024751    .309242    .330368    .779208    .010396    .006593   1269.967   25.39934
                          1.0        1.0        0.0        0.0        0.0
  19000      .019  366.097243 1032.64274   -1398.74 366.097243 1032.64274   -1398.74 407679.827 -318560.88 -89118.942        0.0
                          0.0        0.0 403.931706 1107.90126  -1511.833 407680.557 -318556.98 -89123.572 -703.96956 2619.73423
                   -1915.7647  -666.5455 2431.38272 -1764.8372 726240.711 -229441.94 -496798.77 .445423007 -.23899204 -.20643096
                   2.22135724 -1.5715085 -.64984865        0.0   370.9314    1.52274   1.169631   14.45741   11.10487    .105326
                         400.    .044605    .024751    .309242    .330368    .779208    .010396    .006593   1269.967   25.39934
                          1.0        1.0        0.0        0.0        0.0
  19500     .0195   141.99361 1179.32485 -1321.3185  141.99361 1179.32485 -1321.3185  423383.23 -269769.26 -153613.97        0.0
                          0.0        0.0 162.350936 1267.28816 -1429.6391  423383.18 -269764.92 -153618.26 -1104.9372 2696.92725
                     -1591.99 -1037.3312  2500.6433 -1463.3121 693152.489 -116155.29  -576997.2 .442879899 -.17717582 -.26570408
                   2.27725066 -1.2928407 -.98441001        0.0   370.9314    1.52274   1.169631   14.45741   11.10487    .105326
                         400.    .044605    .024751    .309242    .330368    .779208    .010396    .006593   1269.967   25.39934
                          1.0        1.0        0.0        0.0        0.0
  20000       .02  -85.605973 1296.96785 -1211.3619 -85.605973 1296.96785 -1211.3619 428661.533 -214335.02 -214326.52        0.0
                          0.0        0.0 -83.227593 1395.47027 -1312.2427 428660.705 -214330.35 -214330.35 -1478.6979 2707.71295
                   -1229.0151 -1382.5738 2508.32973 -1125.7559  642996.55 -8.5023924 -642988.05 .429431808 -.11099704 -.31843477
                   2.27707061 -.98233864 -1.2947319        0.0   370.9314    1.52274   1.169631   14.45741   11.10487    .105326
                         400.    .044605    .024751    .309242    .330368    .779208    .010396    .006593   1269.967   25.39934
                          1.0        1.0        0.0        0.0        0.0
  20500     .0205  -311.09859 1382.67569 -1071.5771 -311.09859 1382.67569 -1071.5771 423384.766 -153623.14 -269761.63        0.0
                          0.0        0.0 -326.75676 1489.29127 -1162.5345  423383.18 -153618.26 -269764.92  -1816.048 2651.82579
                   -835.77776 -1693.7743 2454.25278  -760.4785 577007.903 116138.491 -693146.39 .405409478 -.04208504 -.36332443
                    2.2208215 -.64764834 -1.5731732        0.0   370.9314    1.52274   1.169631   14.45741   11.10487    .105326
                         400.    .044605    .024751    .309242    .330368    .779208    .010396    .006593   1269.967   25.39934
                          1.0        1.0        0.0        0.0        0.0
  21000      .021  -528.93009 1434.33702 -905.40693 -528.93009 1434.33702 -905.40693 407682.861 -89128.546 -318554.32        0.0
                          0.0        0.0 -562.23927 1546.44057 -984.20129 407680.557 -89123.572 -318556.98 -2108.6798 2530.64186
                   -421.96202 -1963.2671 2339.74396 -376.47684 496811.407  229425.77 -726237.18 .371404657 .027863209 -.39926787
                   2.10988842 -.29701073 -1.8128778        0.0   370.9314    1.52274   1.169631   14.45741   11.10487    .105326
[...]
                         400.    .044605    .024751    .309242    .330368    .779208    .010396    .006593   1269.967   25.39934
                          1.0        1.0        0.0        0.0        0.0
 113000      .113   -256285.5 -171217.68 427503.181  -256285.5 -171217.68 427503.181  -256285.5 -171217.68 427503.181        0.0
                          0.0        0.0 -337157.62 -165793.57 502951.197 -251960.44 -174352.02 426312.457 -171364.05 -668744.77
                   840108.821 -85067.815 -598720.86 683788.678 -85067.816 -598720.86  683788.68 -372.43518 95.8638426 276.571336
                   -661.19075 566.397266 94.7934817        0.0   370.9314    1.52274   1.169631   14.45741   11.10487    .105326
                         400.    .044605    .024751    .309242    .330368    .779208    .010396    .006593   1269.967   25.39934
                          1.0        1.0        0.0        0.0        0.0
 113500     .1135   -206164.3 -226940.45 433104.756  -206164.3 -226940.45 433104.756 -206164.31 -226940.45 433104.756        0.0
                          0.0        0.0 -261877.78 -234280.34 496158.118 -194607.89 -233465.35  428073.24 -27597.442 -730438.46
                   758035.898 20776.1465 -660045.21 639269.061 20776.1461 -660045.21 639269.061  -148.7984  36.507213 112.291191
                   -718.20213 515.166115 203.036017        0.0   370.9314    1.52274   1.169631   14.45741   11.10487    .105326
                         400.    .044605    .024751    .309242    .330368    .779208    .010396    .006593   1269.967   25.39934
                          1.0        1.0        0.0        0.0        0.0
 114000      .114  -145689.94 -290320.24  436010.18 -145689.94 -290320.24  436010.18 -145689.94 -290320.24 436010.181        0.0
                          0.0        0.0 -240900.94 -281041.52 521942.467 -132463.44   -286830.  419293.44 40140.5796 -802983.99
                   762843.411 144630.304 -726330.42 581700.118 144630.304 -726330.42 581700.119 -87.235356 .948801434 86.2865547
                   -757.45603 449.776709 307.679351        0.0   370.9314    1.52274   1.169631   14.45741   11.10487    .105326
                         400.    .044605    .024751    .309242    .330368    .779208    .010396    .006593   1269.967   25.39934
                          1.0        1.0        0.0        0.0        0.0
 114500     .1145  -50696.858 -333870.09 384566.946 -50696.858 -333870.09 384566.946 -50696.859 -333870.09 384566.946        0.0
                          0.0        0.0 -108932.02 -347068.18 456000.209 -67057.308 -333131.94 400189.244 238136.159 -803068.39
                   564932.233 283173.229 -718437.03 435263.804 283173.229 -718437.03 435263.804 -63.736409 -34.308771 98.0451806
                   -780.16373 372.265185 407.898557        0.0   370.9314    1.52274   1.169631   14.45741   11.10487    .105326
                         400.    .044605    .024751    .309242    .330368    .779208    .010396    .006593   1269.967   25.39934
                          1.0        1.0        0.0        0.0        0.0
 115000      .115  -8167.5018 -376003.92 384171.422 -8167.5018 -376003.92 384171.422  -8167.502 -376003.92 384171.423        0.0
                          0.0        0.0 27104.2763 -421356.83 394252.551 .127058E-4 -371231.06  371231.06 448461.104 -815609.38
                   367148.275 367836.419 -760175.34 392338.924 367836.419 -760175.34 392338.925 -84.173375 -36.433216 120.606592
                   -785.62644 283.975857 501.650521        0.0   370.9314    1.52274   1.169631   14.45741   11.10487    .105326
                         400.    .044605    .024751    .309242    .330368    .779208    .010396    .006593   1269.967   25.39934
                          1.0        1.0        0.0        0.0        0.0
 115500     .1155  79720.8674 -407865.94 328145.073 79720.8674 -407865.94 328145.073 79720.8673 -407865.94 328145.074        0.0
                          0.0        0.0 143340.929 -459375.18 316034.251 67057.3081 -400189.24 333131.936 602716.109 -775409.43
                   172693.322 487586.808 -736011.01 248424.206 487586.808 -736011.01 248424.206 -40.820796 -61.480788 102.301584
                   -775.61157 188.075656 587.535943        0.0   370.9314    1.52274   1.169631   14.45741   11.10487    .105326
                         400.    .044605    .024751    .309242    .330368    .779208    .010396    .006593   1269.967   25.39934
                          1.0        1.0        0.0        0.0        0.0
 116000      .116  152474.906 -418339.44 265864.533 152474.906 -418339.44 265864.533 152474.905 -418339.44 265864.534        0.0
                          0.0        0.0 177887.086 -454764.91 276877.828 132463.443 -419293.44 286829.997 632651.999 -731642.74
                   98990.7419 570814.345 -684203.97 113389.628 570814.344 -684203.97 113389.629 -237.72843 -32.362311 270.090737
                   -745.01127  85.579339 659.431897        0.0   370.9314    1.52274   1.169631   14.45741   11.10487    .105326
                         400.    .044605    .024751    .309242    .330368    .779208    .010396    .006593   1269.967   25.39934
                          1.0        1.0        0.0        0.0        0.0
 116500     .1165  200844.693 -425023.78 224179.083 200844.693 -425023.78 224179.083 200844.692 -425023.78 224179.083        0.0
                          0.0        0.0 291317.348 -480111.43 188794.086 194607.888 -428073.24 233465.353 771428.782 -668905.52
                   -102523.26 625868.468 -649202.86 23334.3901 625868.467 -649202.86 23334.3914 -301.91608 -15.108304  317.02438
                   -700.99303 -19.846836 720.839833        0.0   370.9314    1.52274   1.169631   14.45741   11.10487    .105326
                         400.    .044605    .024751    .309242    .330368    .779208    .010396    .006593   1269.967   25.39934
                          1.0        1.0        0.0        0.0        0.0
 117000      .117  248382.286 -430434.75 182052.461 248382.286 -430434.75 182052.461 248382.285 -430434.75 182052.462        0.0
                          0.0        0.0 325141.417 -475384.03 150242.615 251960.441 -426312.46 174352.016 800525.449 -625626.65
                    -174898.8 678817.033 -612487.21 -66329.824 678817.032 -612487.21 -66329.823 -411.90917  -10.44782 422.356986
                   -641.49855 -125.59202 767.090566        0.0   370.9314    1.52274   1.169631   14.45741   11.10487    .105326
                         400.    .044605    .024751    .309242    .330368    .779208    .010396    .006593   1269.967   25.39934
                          1.0        1.0        0.0        0.0        0.0
 117500     .1175  297612.292 -408811.51 111199.217 297612.292 -408811.51 111199.217 297612.291 -408811.51 111199.218        0.0
                          0.0        0.0 292670.649 -428905.83  136235.18 303108.891 -414054.45 110945.554 721576.477 -565141.01
                   -156435.47 706423.801 -520010.73 -186413.07   706423.8 -520010.73 -186413.07 -314.36739  -40.06224 354.429628
                   -572.39631 -228.66561 801.061919        0.0   370.9314    1.52274   1.169631   14.45741   11.10487    .105326
                         400.    .044605    .024751    .309242    .330368    .779208    .010396    .006593   1269.967   25.39934
                          1.0        1.0        0.0        0.0        0.0
 118000      .118  331758.058  -384250.3 52492.2461 331758.058  -384250.3 52492.2461 331758.058  -384250.3  52492.247        0.0
                          0.0        0.0 308344.528 -400434.98 92090.4559 346793.795 -391601.04 44807.2447 708779.513 -492525.44
                   -216254.07 716008.363 -436742.55 -279265.81 716008.362 -436742.55 -279265.81  -409.1301 -32.269933 441.400034
                   -488.41048 -327.77009 816.180543        0.0   370.9314    1.52274   1.169631   14.45741   11.10487    .105326
                         400.    .044605    .024751    .309242    .330368    .779208    .010396    .006593   1269.967   25.39934
                          1.0        1.0        0.0        0.0        0.0
 118500     .1185  360689.076 -363335.46 2646.38532 360689.076 -363335.46 2646.38532 360689.075 -363335.46 2646.38598        0.0
                          0.0        0.0 370072.844 -381215.05  11142.203 381939.485 -359505.12 -22434.368 751287.891 -392357.25
                   -358930.64 724024.537 -365981.85 -358042.69 724024.537 -365981.85 -358042.69 -232.52028  -100.7957 333.315978
                   -399.68439 -418.47161 818.156027        0.0   370.9314    1.52274   1.169631   14.45741   11.10487    .105326
                         400.    .044605    .024751    .309242    .330368    .779208    .010396    .006593   1269.967   25.39934
                          1.0        1.0        0.0        0.0        0.0
 119000      .119  405442.037 -311982.88 -93459.157 405442.037 -311982.88 -93459.157 405442.037 -311982.88 -93459.156        0.0
                          0.0        0.0 386367.663 -330872.51 -55495.156 407680.557 -318556.98 -89123.572 717240.171 -275377.35
                   -441862.82 717424.917 -218523.72 -498901.19 717424.917 -218523.72 -498901.19 -74.882298 -166.09779 240.980088
                   -303.43105 -499.88518   803.3162        0.0   370.9314    1.52274   1.169631   14.45741   11.10487    .105326
                         400.    .044605    .024751    .309242    .330368    .779208    .010396    .006593   1269.967   25.39934
                          1.0        1.0        0.0        0.0        0.0
 119500     .1195  411733.734 -268947.85 -142785.88 411733.734 -268947.85 -142785.88 411733.734 -268947.85 -142785.88        0.0
                          0.0        0.0 389673.594 -283492.71 -106180.88  423383.18 -269764.92 -153618.26 673166.309 -177311.83
                   -495854.47 680681.585 -126161.97 -554519.62 680681.585 -126161.97 -554519.62 85.9424607 -199.66877 113.726313
                   -202.44386 -570.47957 772.923483        0.0   370.9314    1.52274   1.169631   14.45741   11.10487    .105326
                         400.    .044605    .024751    .309242    .330368    .779208    .010396    .006593   1269.967   25.39934
                          1.0        1.0        0.0        0.0        0.0
  % % % % % %   Suspended simulation;  plot data space exhausted;  SPY SPACE is required.   LIMBUF =  840000.
  % % % % % %   Suspended simulation;  plot data space exhausted;  SPY SPACE is required.   LIMBUF =  840000.
  +++  Time-sharing disabled.   Send  user-keyed interrupt to silence alarm.
   Current values.  INDBUF  INDBEG  LIMBUF  MFLUSH  NUMDCD  KCARD1  KCARD2
                    839994      50  840000    1007     230       1     231
Plot timespan now in memory (in sec) = 1.04985997E-01   1.19985000E-01
   ++++  Begin plot-data copy from memory to disk.   MFLUSH, INDBUF, N4, Tbeg,  Tend = 1008  839994       1  -1.00000E+00
1.00000E+19
 120000       .12  431677.671 -209036.82 -222640.85 431677.671 -209036.82 -222640.85 431677.671 -209036.82 -222640.85        0.0
                          0.0        0.0 471119.319 -229716.56 -241402.76 428660.705 -214330.35 -214330.35 700835.879 11686.1985
                   -712522.08 640714.495 13604.0249 -654318.52 640714.495 13604.0242 -654318.52 43.9255935 -204.62813 160.702531
                   -95.654318 -628.44767 724.102021        0.0   370.9314    1.52274   1.169631   14.45741   11.10487    .105326
                         400.    .044605    .024751    .309242    .330368    .779208    .010396    .006593   1269.967   25.39934
                          1.0        1.0        0.0        0.0        0.0

Extrema of output variables follow.   Order and column positioning are the same as for the preceding time-step loop output.
Variable maxima :  462682.664 451044.388 454127.909 462682.664 451044.388 454127.909 462682.664 532726.086  454127.91        0.0
                          0.0        0.0 585213.271 497596.577 547031.354 428660.705 428660.703 428660.703  997071.88   865110.2
                   .1040399E7 798342.988 780300.315  798147.47 798342.988 824228.022 798147.471 356.246522 671.279038 647.125763
                   551.958917 629.059287 890.840652        0.0   370.9314    1.52274   1.169631   14.45741   11.10487    .105326
                         400.    .044605    .024751    .309242    .330368    .779208    .010396    .006593   1269.967   25.39934
                          1.0        1.0        0.0        0.0        0.0
Times of maxima :     .099795    .086689    .054624    .099795    .086689    .054624    .099795    .047109    .054624        0.0
                          0.0        0.0    .079511    .066322     .05381        0.0    .006667    .113333    .058434    .104968
                      .071558    .057316    .064365    .091744    .057316    .047107    .091744    .062339    .047057    .059691
                      .105101    .111537    .058249        0.0        0.0        0.0        0.0        0.0        0.0        0.0
                          0.0        0.0        0.0        0.0        0.0        0.0        0.0        0.0        0.0        0.0
                          0.0        0.0        0.0        0.0        0.0
Variable minima :   -465206.7 -460133.82 -461788.88  -465206.7 -460133.82 -461788.88  -465206.7 -460133.82 -461788.88        0.0
                          0.0        0.0 -569935.21 -498155.47 -572398.62 -428660.71  -428660.7  -428660.7 -925384.09 -906342.37
                   -993857.96 -772980.04 -789431.94 -805421.98 -774381.56 -789431.94 -805421.98 -685.45828 -301.56292 -535.54227
                      -843.94 -730.46632 -512.50408        0.0   370.9314    1.52274   1.169631   14.45741   11.10487    .105326
                         400.    .044605    .024751    .309242    .330368    .779208    .010396    .006593   1269.967   25.39934
                          1.0        1.0        0.0        0.0        0.0
Times of minima :     .070521    .056958    .083928    .070521    .056958    .083928    .070521    .056958    .083928        0.0
                          0.0        0.0    .070643    .056617     .06363        .01    .016667    .103333    .108786    .055742
                      .061917    .108076    .054529    .062558    .047113    .054529    .062558    .052639    .061994    .044872
                      .055021    .061603    .108244        0.0        0.0        0.0        0.0        0.0        0.0        0.0
                          0.0        0.0        0.0        0.0        0.0        0.0        0.0        0.0        0.0        0.0
                          0.0        0.0        0.0        0.0        0.0

Blank card terminating all plot cards.            |BLANK PLOT

Memory storage figures for the preceding, now-completed data case.  -------------------------------  Present   Program
A value of  "-9999"  indicates that no figure is available.         28-Feb-22  19:05:11              figure     limit  (name)
     Size List 1.   Number of electric network nodes.                                                   37      6000  (LBUS)
     Size List 2.   Number of electric network branches.                                                39     10000  (LBRNCH)
     Size List 3.   Number of data values in R, L, C tables.                                            45    192000  (LDATA)
     Size List 4.   Number of electric network sources.                                                  3       900  (LEXCT)
     Size List 5.   Storage for [Y] and triangularized [Y].   No. times =    3     Factors =    66     189    420000  (LYMAT)
     Size List 6.   Number of entries in switch table.                  No. flops = 18                  21      1200  (LSWTCH)
     Size List 7.   Number of distinct ALPHANUMERIC data names plus program SPY variables.              25     15000  (LSIZE7)
     Size List 8.   History points of distributed lines.                                              3957    120000  (LPAST)
     Size List 9.   Number of nonlinear elements.                                                        0      2250  (LNONL)
     Size List 10.  Points of nonlinear characteristics.                                                 0      3800  (LCHAR)
     Size List 11.  Number of Type-59 S.M. outputs.                                                      0       720  (LSMOUT)
     Size List 12.  Total number of EMTP output variables.                                              55      2000  (LSIZ12)
     Size List 13.  Working space for batch/SPY plotting.                                            -9999     72800  (LSIZ13)
     Size List 14.  S.M./U.M. connections to TACS.                                                   -9999       510  (LBSTAC)
     Size List 15.  Character storage in bytes for MODELS.                                            3297     90000  (LCTACS)
     Size List 16.  Total number of Type-59 S.M. masses.                                                 0       800  (LIMASS)
     Size List 17.  Number of Type-59 Synchronous machines.                                              0        90  (LSYN)
     Size List 18.  Branch and switch power/energy outputs.                                              0       254  (MAXPE)
     Size List 19.  Total floating-point TACS table space.                                              23    120000  (LTACST)
     Size List 20.  Non-copied recursive convolution data.                                               0    100000  (LFSEM)
     Size List 21.  Total modal/phase [T] matrix storage.                                                9      3000  (LFD)
     Size List 22.  Total recursive convolution history.                                                 0     15000  (LHIST)
     Size List 23.  Giant vectors for renumbering, phasors;  also extrema accumulation.                  93    192000  (LSIZ23)
     Size List 24.  Peak phases of compensation for data.                                                0       120  (LCOMP)
     Size List 25.  Total table space for all U.M usage.                                             -9999     45000  (LSPCUM)
     Size List 26.  Square of max number of coupled phases.                                              9    260000  (LSIZ26)
     Size List 27.  Maximum number of MODELS top variables.                                             44       600  (LSIZ27)
     Size List 28.  MODELS.  Total work space is divided into INTEGER and REAL.  1st, REAL:           1780    210000  (LRTACS)
                             Second  and last,  statistics for INTEGER work space.                    6838         0  (LITACS)
     Size List 29.  RAM disk used by "TAPSAV" table saving (limit is "LABCOM" size LTLABL).          -9999       600  (LSIZ29)
     Size List 30.  Taku Noda frequency-dependent circuits.                                              0        19  (LSIZ30)
Timing figures characterizing central processor (CP) solution speed.  ----------------------------   CP sec  Wait sec  Real sec
     Data input time (through blank card ending branches) ....                                       0.031     0.000     0.031
     Node renumbering and phasor solution  ....                                                      0.031     0.000     0.031
     After phasor solution, but before time-step loop  ....                                          0.000     0.000     0.000
     Integration of equations (time-step loop)  ....                                                 0.875     0.000     0.875
     Plotting or STATISTICS termination overlays ....                                                0.000     0.000     0.000
                                                                                                    ---------------------------
                                                                                          Totals      0.938     0.000     0.938

