   ---   236   cards of disk file read into card cache cells  1   onward.
 Comment card is ignored.      |C   LBUS  LBRNCH   LDATA   LEXCT   LYMAT  LSWTCH
 Limit CIDEAL cards =   200    |CARDS        200 { Limit of CIDEAL will be 2 mor
 1st card (Lists  1-10).       |    6000   10000  192000     900  420000    120
 Comment card is ignored.      |C LSMOUT  LSIZ12  LSIZ13  LBSTAC  LCTACS  LIMASS
 2nd card (Lists 11-20).       |     720    2000   72800     510   90000     80
 Comment card is ignored.      |C    LFD   LHIST  LSIZ23   NCOMP  LSPCUM  LSIZ26
 3rd card (Lists 21-30).       |    3000   15000  192000     120   45000  26000
 4th card (Lists 31-32).       |     200     300     { Optional card for Lists
 Comment card is ignored.      |C  LWORK  LMARTI
 Supplemental offsets.         |  840000     742
 <===> Done with  "/"-card sorting by data class.    Remember that the source file appears different from interpreted input data.
Alternative Transients Program (ATP),  GNU Linux or DOS.  All rights reserved by Can/Am user group of Portland, Oregon, USA.
 Date (dd-mth-yy) and time of day (hh.mm.ss) = 28-Feb-22  19:32:39   Name of disk plot file is  draw6.3\bernal\energizacion2098.pl4
Consult the 860-page ATP Rule Book of the Can/Am EMTP User Group in Portland,  Oregon, USA.  Source code date is 12 August 2008.
Total size of LABCOM tables = 10913436 INTEGER words.  31 VARDIM  List Sizes follow:  6002  10K  192K  900  420K  1200  15K
  120K  2250  3800  720  2K  72800  510  90K  800  90  254  120K  100K  3K  15K  192K  120  45K  260K  600  210K  1100  60  200
--------------------------------------------------+--------------------------------------------------------------------------------
Descriptive interpretation of input data cards.   |  Input data card images are shown below, all 80 columns, character by character
                                                  0         1         2         3         4         5         6         7         8
                                                  012345678901234567890123456789012345678901234567890123456789012345678901234567890
--------------------------------------------------+--------------------------------------------------------------------------------
Comment card.   NUMDCD = 1.                       |C data:C:\ATP\ATPDRAW6.3\BERNAL\ENERGIZACION2098.ATP
Marker card preceding new EMTP data case.         |BEGIN NEW DATA CASE
Comment card.   NUMDCD = 3.                       |C --------------------------------------------------------
Comment card.   NUMDCD = 4.                       |C Generated by ATPDRAW  febrero, lunes 28, 2022
Comment card.   NUMDCD = 5.                       |C A Bonneville Power Administration program
Comment card.   NUMDCD = 6.                       |C by H. K. Høidalen at SEfAS/NTNU - NORWAY 1994-2016
Comment card.   NUMDCD = 7.                       |C --------------------------------------------------------
Comment card.   NUMDCD = 8.                       |C  dT  >< Tmax >< Xopt >< Copt ><Epsiln>
Misc. data.     1.000E-06   1.200E-01   5.000E+01 |   1.E-6     .12     50.
Misc. data.    500    1  0  1  1  0  0  0  0  0   |     500       1       0       1       1       0       0       0       0
  ///  Warning.  Nonzero XOPT or COPT differs from the power frequency of  6.00000000E+01  Hz.   Did the user really want this?
No TACS data,  but MODELS data begins (next).     |MODELS
      Another ordinary MODELS data card.          |OUTPUT
      Another ordinary MODELS data card.          |  AnVol
      Another ordinary MODELS data card.          |  LONG
      Another ordinary MODELS data card.          |  R0F
      Another ordinary MODELS data card.          |  R1F
      Another ordinary MODELS data card.          |  X0F
      Another ordinary MODELS data card.          |  X1F
      Another ordinary MODELS data card.          |  RDIVX
      Another ordinary MODELS data card.          |  RINSER
      Another ordinary MODELS data card.          |  CLOSE1
      Another ordinary MODELS data card.          |  RPpos
      Another ordinary MODELS data card.          |  RPcero
      Another ordinary MODELS data card.          |  LPpos
      Another ordinary MODELS data card.          |  LPcero
      Another ordinary MODELS data card.          |  CPpos
      Another ordinary MODELS data card.          |  CPcero
      Another ordinary MODELS data card.          |  Xp
      Another ordinary MODELS data card.          |  CR
      Another ordinary MODELS data card.          |  SIMET
      Another ordinary MODELS data card.          |  ENC1
      Another ordinary MODELS data card.          |  ENC2
      Another ordinary MODELS data card.          |  ENC1AS
      Another ordinary MODELS data card.          |  ENC2AS
      Another ordinary MODELS data card.          |MODEL DEFAULT
      Another ordinary MODELS data card.          |DATA AnVol,LONG,R0F,R1F,X0F,X1F,RDIVX,RINSER,CLOSE1,RPpos,RPcero,LPpos,LPcero
      Another ordinary MODELS data card.          |OUTPUT o1,o2,o3, o4, o5, o6, o7, o8, o9, o10, o11, o12, o13
      Another ordinary MODELS data card.          |VAR o1,o2,o3, o4, o5, o6, o7, o8, o9, o10, o11, o12, o13
      Another ordinary MODELS data card.          |INIT
      Another ordinary MODELS data card.          |  o1:=AnVol
      Another ordinary MODELS data card.          |  o2:=LONG
      Another ordinary MODELS data card.          |  o3:=R0F
      Another ordinary MODELS data card.          |  o4:=R1F
      Another ordinary MODELS data card.          |  o5:=X0F
      Another ordinary MODELS data card.          |  O6:=X1F
      Another ordinary MODELS data card.          |  o7:=RDIVX
      Another ordinary MODELS data card.          |  o8:=RINSER
      Another ordinary MODELS data card.          |  o9:=CLOSE1
      Another ordinary MODELS data card.          |  o10:=RPpos
      Another ordinary MODELS data card.          |  o11:=RPcero
      Another ordinary MODELS data card.          |  o12:=LPpos
      Another ordinary MODELS data card.          |  o13:=LPcero
      Another ordinary MODELS data card.          |
      Another ordinary MODELS data card.          |ENDINIT
      Another ordinary MODELS data card.          |EXEC
      Another ordinary MODELS data card.          |ENDEXEC
      Another ordinary MODELS data card.          |ENDMODEL
      Another ordinary MODELS data card.          |MODEL DEFAULT1
      Another ordinary MODELS data card.          |DATA CPpos,CPcero,Xp,CR,SIMET,ENC1,ENC2,ENC1AS,ENC2AS
      Another ordinary MODELS data card.          |OUTPUT o1, o2, o3, o4, o5, o6, o7, o8, o9
      Another ordinary MODELS data card.          |VAR o1, o2, o3, o4, o5, o6, o7, o8, o9
      Another ordinary MODELS data card.          |INIT
      Another ordinary MODELS data card.          |  o1:=CPpos
      Another ordinary MODELS data card.          |  o2:=CPcero
      Another ordinary MODELS data card.          |  o3:=Xp
      Another ordinary MODELS data card.          |  o4:=CR
      Another ordinary MODELS data card.          |  o5:=SIMET
      Another ordinary MODELS data card.          |  o6:=ENC1
      Another ordinary MODELS data card.          |  o7:=ENC2
      Another ordinary MODELS data card.          |  o8:=ENC1AS
      Another ordinary MODELS data card.          |  o9:=ENC2AS
      Another ordinary MODELS data card.          |
      Another ordinary MODELS data card.          |ENDINIT
      Another ordinary MODELS data card.          |EXEC
      Another ordinary MODELS data card.          |ENDEXEC
      Another ordinary MODELS data card.          |ENDMODEL
      Another ordinary MODELS data card.          |USE DEFAULT AS DEFAULT
      Another ordinary MODELS data card.          |DATA
      Another ordinary MODELS data card.          |  AnVol:=      0.0
      Another ordinary MODELS data card.          |  LONG:= 313.0547
      Another ordinary MODELS data card.          |  R0F:= 1.350221
      Another ordinary MODELS data card.          |  R1F:= 1.602828
      Another ordinary MODELS data card.          |  X0F:= 7.560009
      Another ordinary MODELS data card.          |  X1F:= 8.974377
      Another ordinary MODELS data card.          |  RDIVX:=   0.1786
      Another ordinary MODELS data card.          |  RINSER:=     400.
      Another ordinary MODELS data card.          |  CLOSE1:= 0.052992
      Another ordinary MODELS data card.          |  RPpos:=  0.01969
      Another ordinary MODELS data card.          |  RPcero:= 0.185335
      Another ordinary MODELS data card.          |  LPpos:= 0.360515
      Another ordinary MODELS data card.          |  LPcero:= 1.352208
      Another ordinary MODELS data card.          |OUTPUT
      Another ordinary MODELS data card.          |  AnVol:=o1
      Another ordinary MODELS data card.          |  LONG:=o2
      Another ordinary MODELS data card.          |  R0F:=o3
      Another ordinary MODELS data card.          |  R1F:=o4
      Another ordinary MODELS data card.          |  X0F:=o5
      Another ordinary MODELS data card.          |  X1F:=o6
      Another ordinary MODELS data card.          |  RDIVX:=o7
      Another ordinary MODELS data card.          |  RINSER:=o8
      Another ordinary MODELS data card.          |  CLOSE1:=o9
      Another ordinary MODELS data card.          |  RPpos:=o10
      Another ordinary MODELS data card.          |  RPcero:=o11
      Another ordinary MODELS data card.          |  LPpos:=o12
      Another ordinary MODELS data card.          |  LPcero:=o13
      Another ordinary MODELS data card.          |ENDUSE
      Another ordinary MODELS data card.          |USE DEFAULT1 AS DEF
      Another ordinary MODELS data card.          |DATA
      Another ordinary MODELS data card.          |  CPpos:= 0.017698
      Another ordinary MODELS data card.          |  CPcero:= 0.006588
      Another ordinary MODELS data card.          |  Xp:= 883.8738
      Another ordinary MODELS data card.          |  CR:= 17.67748
      Another ordinary MODELS data card.          |  SIMET:=      0.0
      Another ordinary MODELS data card.          |  ENC1:=      0.0
      Another ordinary MODELS data card.          |  ENC2:=      0.0
      Another ordinary MODELS data card.          |  ENC1AS:=       1.
      Another ordinary MODELS data card.          |  ENC2AS:=      0.0
      Another ordinary MODELS data card.          |OUTPUT
      Another ordinary MODELS data card.          |  CPpos:=o1
      Another ordinary MODELS data card.          |  CPcero:=o2
      Another ordinary MODELS data card.          |  Xp:=o3
      Another ordinary MODELS data card.          |  CR:=o4
      Another ordinary MODELS data card.          |  SIMET:=o5
      Another ordinary MODELS data card.          |  ENC1:=o6
      Another ordinary MODELS data card.          |  ENC2:=o7
      Another ordinary MODELS data card.          |  ENC1AS:=o8
      Another ordinary MODELS data card.          |  ENC2AS:=o9
      Another ordinary MODELS data card.          |ENDUSE
      Another ordinary MODELS data card.          |RECORD
      Another ordinary MODELS data card.          |  DEFAULT.o1 AS AnVOL
      Another ordinary MODELS data card.          |  DEFAULT.o2 AS LONG
      Another ordinary MODELS data card.          |  DEFAULT.o3 AS R0F
      Another ordinary MODELS data card.          |  DEFAULT.o4 AS R1F
      Another ordinary MODELS data card.          |  DEFAULT.o5 AS X0F
      Another ordinary MODELS data card.          |  DEFAULT.o6 AS X1F
      Another ordinary MODELS data card.          |  DEFAULT.o7 AS RDIVX
      Another ordinary MODELS data card.          |  DEFAULT.o8 AS RINSER
      Another ordinary MODELS data card.          |  DEFAULT.o9 AS CLOSE1
      Another ordinary MODELS data card.          |  DEFAULT.o10 AS RPpos
      Another ordinary MODELS data card.          |  DEFAULT.o11 AS RPcero
      Another ordinary MODELS data card.          |  DEFAULT.o12 AS LPpos
      Another ordinary MODELS data card.          |  DEFAULT.o13 AS LPcero
      Another ordinary MODELS data card.          |  DEF.o1 AS CPpos
      Another ordinary MODELS data card.          |  DEF.o2 AS CPcero
      Another ordinary MODELS data card.          |  DEF.o3 AS Xp
      Another ordinary MODELS data card.          |  DEF.o4 AS CR
      Another ordinary MODELS data card.          |  DEF.o5 AS SIMET
      Another ordinary MODELS data card.          |  DEF.o6 AS ENC1
      Another ordinary MODELS data card.          |  DEF.o7 AS ENC2
      Another ordinary MODELS data card.          |  DEF.o8 AS ENC1AS
      Another ordinary MODELS data card.          |  DEF.o9 AS ENC2AS
Termination of data for Laurent Dube`s MODELS.    |ENDMODELS
Comment card.   NUMDCD = 153.                     |C        1         2         3         4         5         6         7         8
Comment card.   NUMDCD = 154.                     |C 345678901234567890123456789012345678901234567890123456789012345678901234567890
Optional blank card follows last of MODELS data.  |BLANK MODELS
Comment card.   NUMDCD = 156.                     |C < n1 >< n2 ><ref1><ref2>< R  >< L  >< C  >
Comment card.   NUMDCD = 157.                     |C < n1 >< n2 ><ref1><ref2>< R  >< A  >< B  ><Leng><><>0
1st of coupled R-L.   1.35020E+00  2.40643E-02    |51IFUENASB1A              1.35027.5600088073
2nd coil. 1.603E+00 2.857E-02 0.000E+00 0.000E+00 |52IFUENBSB1B              1.60288.9743769905
Zca, Zcc=-8.420E-02-1.501E-03 1.519E+00 2.707E-02 |53IFUENCSB1C
Series R-L-C.   1.000E+09  0.000E+00  0.000E+00   |  SB1A                      1.E9                                               0
Series R-L-C.   1.000E+09  0.000E+00  0.000E+00   |  SB1B                      1.E9                                               0
Series R-L-C.   1.000E+09  0.000E+00  0.000E+00   |  SB1C                      1.E9                                               0
Series R-L-C.   1.768E+01  2.813E+00  0.000E+00   |  RSNSHA                  17.677883.87                                         0
Series R-L-C.   1.768E+01  2.813E+00  0.000E+00   |  RSNSHB                  17.677883.87                                         0
Series R-L-C.   1.768E+01  2.813E+00  0.000E+00   |  RSNSHC                  17.677883.87                                         0
Series R-L-C.   1.000E+09  0.000E+00  0.000E+00   |  RSNNHA                    1.E9                                               0
Series R-L-C.   1.000E+09  0.000E+00  0.000E+00   |  RSNNHB                    1.E9                                               0
Series R-L-C.   1.000E+09  0.000E+00  0.000E+00   |  RSNNHC                    1.E9                                               0
Series R-L-C.   1.000E+09  0.000E+00  0.000E+00   |  SE2A                      1.E9                                               0
Series R-L-C.   1.000E+09  0.000E+00  0.000E+00   |  SE2B                      1.E9                                               0
Series R-L-C.   1.000E+09  0.000E+00  0.000E+00   |  SE2C                      1.E9                                               0
Series R-L-C.   2.500E+02  0.000E+00  3.000E-10   |  X0001B                    250.       .0003                                   0
Series R-L-C.   2.500E+02  0.000E+00  3.000E-10   |  X0002B                    250.       .0003                                   0
Series R-L-C.   1.000E-06  0.000E+00  0.000E+00   |  X0001ALN1A               1.E-6                                               0
Series R-L-C.   1.000E-06  0.000E+00  0.000E+00   |  SB1A  X0002A             1.E-6                                               0
Series R-L-C.   1.000E-06  0.000E+00  0.000E+00   |  X0001BLN1B               1.E-6                                               0
Series R-L-C.   1.000E-06  0.000E+00  0.000E+00   |  SB1B  X0002B             1.E-6                                               0
Series R-L-C.   1.000E-06  0.000E+00  0.000E+00   |  X0001CLN1C               1.E-6                                               0
Series R-L-C.   1.000E-06  0.000E+00  0.000E+00   |  SB1C  X0002C             1.E-6                                               0
Series R-L-C.   4.000E+02  0.000E+00  0.000E+00   |  XX0005X0002A              400.                                               0
Series R-L-C.   4.000E+02  0.000E+00  0.000E+00   |  XX0003X0002B              400.                                               0
Series R-L-C.   4.000E+02  0.000E+00  0.000E+00   |  XX0004X0002C              400.                                               0
Series R-L-C.   2.500E+02  0.000E+00  3.000E-10   |  X0001A                    250.       .0003                                   0
Series R-L-C.   1.000E+06  0.000E+00  0.000E+00   |  X0001AX0002A              1.E6                                               0
Series R-L-C.   1.000E+06  0.000E+00  0.000E+00   |  X0001BX0002B              1.E6                                               0
Series R-L-C.   1.000E+06  0.000E+00  0.000E+00   |  X0001CX0002C              1.E6                                               0
Series R-L-C.   2.500E+02  0.000E+00  3.000E-10   |  X0002C                    250.       .0003                                   0
Series R-L-C.   2.500E+02  0.000E+00  3.000E-10   |  X0002A                    250.       .0003                                   0
Series R-L-C.   2.500E+02  0.000E+00  3.000E-10   |  X0001C                    250.       .0003                                   0
Series R-L-C.   1.250E+02  0.000E+00  6.000E-10   |  X0001AX0002A              125.       .0006                                   0
Series R-L-C.   1.250E+02  0.000E+00  6.000E-10   |  X0001BX0002B              125.       .0006                                   0
Series R-L-C.   1.250E+02  0.000E+00  6.000E-10   |  X0001CX0002C              125.       .0006                                   0
 1.853E-01 1.352E+00 6.590E-03 8.082E+02 1.667E-03|-1LN1A  VFF2A             .185341.3522.00659313.05 0 0                         0
 1.969E-02 3.605E-01 1.770E-02 2.546E+02 1.411E-03|-2LN1B  VFF2B             .01969.36051 .0177313.05 0 0                         0
3rd or later transposed distributed phase.        |-3LN1C  VFF2C                                                                  0
Blank card ending branches.  IBR, NTOT = 39  31   |BLANK BRANCH
Comment card.   NUMDCD = 198.                     |C < n 1>< n 2>< Tclose ><Top/Tde ><   Ie   ><Vf/CLOP ><  type  >
Switch.  -1.00E+00  1.00E+01  0.00E+00  0.00E+00  |  LN1A  COMPA        -1.       10.                                             0
Switch.  -1.00E+00  1.00E+01  0.00E+00  0.00E+00  |  LN1B  COMPB        -1.       10.                                             0
Switch.  -1.00E+00  1.00E+01  0.00E+00  0.00E+00  |  LN1C  COMPC        -1.       10.                                             0
Switch.  -1.00E+00  1.00E+01  0.00E+00  0.00E+00  |  VFF2A RSNNHA       -1.       10.                                             0
Switch.  -1.00E+00  1.00E+01  0.00E+00  0.00E+00  |  VFF2B RSNNHB       -1.       10.                                             0
Switch.  -1.00E+00  1.00E+01  0.00E+00  0.00E+00  |  VFF2C RSNNHC       -1.       10.                                             0
Switch.   2.00E+00 -1.00E+00  0.00E+00  0.00E+00  |  VFF2A SE2A          2.       -1.                                             0
Switch.   2.00E+00 -1.00E+00  0.00E+00  0.00E+00  |  VFF2B SE2B          2.       -1.                                             0
Switch.   2.00E+00 -1.00E+00  0.00E+00  0.00E+00  |  VFF2C SE2C          2.       -1.                                             0
Switch.   5.30E-02  1.00E+03  0.00E+00  0.00E+00  |  X0001BXX0003.052992288      1.E3                                             0
Switch.   5.30E-02  1.00E+03  0.00E+00  0.00E+00  |  X0001CXX0004.052992288      1.E3                                             0
Switch.   6.05E-02  1.00E+03  0.00E+00  0.00E+00  |  XX0005X0002A.060492288      1.E3                                             0
Switch.   6.05E-02  1.00E+03  0.00E+00  0.00E+00  |  XX0003X0002B.060492288      1.E3                                             0
Switch.   6.05E-02  1.00E+03  0.00E+00  0.00E+00  |  XX0004X0002C.060492288      1.E3                                             0
Switch.   5.30E-02  1.00E+03  0.00E+00  0.00E+00  |  X0001AXX0005.052992288      1.E3                                             0
Permanently-closed switch used for metering.      |  VFUENAIFUENA                                        MEASURING                1
Permanently-closed switch used for metering.      |  VFUENBIFUENB                                        MEASURING                1
Permanently-closed switch used for metering.      |  VFUENCIFUENC                                        MEASURING                1
Permanently-closed switch used for metering.      |  COMPA RSNSHA                                        MEASURING                1
Permanently-closed switch used for metering.      |  COMPB RSNSHB                                        MEASURING                1
Permanently-closed switch used for metering.      |  COMPC RSNSHC                                        MEASURING                1
Blank card ending switches.   KSWTCH = 21.        |BLANK SWITCH
Comment card.   NUMDCD = 221.                     |C < n 1><>< Ampl.  >< Freq.  ><Phase/T0><   A1   ><   T1   >< TSTART >< TSTOP  >
Source.   4.29E+05  5.00E+01  0.00E+00 -1.00E+00  |14VFUENA  428660.705       50.                                     -1.      100.
Source.   4.29E+05  5.00E+01 -1.20E+02 -1.00E+00  |14VFUENB  428660.705       50.     -120.                           -1.      100.
Source.   4.29E+05  5.00E+01 -2.40E+02 -1.00E+00  |14VFUENC  428660.705       50.     -240.                           -1.      100.
Blank card ends electric sources.  KCONST = 3     |BLANK SOURCE
Pi-equivalent branches of distributed circuits are added to the table of List Size 3 between indices  40   and  45.

Sinusoidal steady-state phasor solution, branch by branch.   All flows are away from a bus,  and the real part,  magnitude,  or  "P"
is printed above the imaginary part,  the angle,  or  "Q".   The first solution frequency  =  5.00000000E+01  Hertz.
  Bus K                        Phasor  node  voltage              Phasor  branch  current               Power flow       Power loss
             Bus M         Rectangular            Polar          Rectangular            Polar            P  and  Q        P  and  Q

 IFUENA                    428660.705       428660.705      .42883341580722  .44578148325087      91912.017173741  .15925511423184
                                  0.0              0.0      .12174987596075       15.8497475       -26094.6938315        0.8916992

            SB1A      428661.11029509  428661.11031416      -.4288334158072  .44578148325087      -91911.85791863
                      -4.043653440775       -0.0005405      -.1217498759607     -164.1502525       26095.58553067

 IFUENB                  -214330.3525       428660.705      -.1089782224246  .44578148325183      91912.017174566  .15925511422949
                      -371231.0601341     -120.0000000      -.4322555700594     -104.1502525      -26094.69382935        0.8916992

            SB1B      -214334.0570541  428661.11031416      .10897822242462  .44578148325183      -91911.85791945
                      -371229.3893033     -120.0005405      .43225557005939       75.8497475      26095.585528518

 IFUENC                  -214330.3525       428660.705      -.3198551933992   .4457814832573       91912.01717495  .15925511423578
                      371231.06013415      120.0000000      .31050569410338      135.8497475      -26094.69383229        0.8916992

            SB1C      -214327.0532409  428661.11031416      .31985519339924   .4457814832573      -91911.85791984
                      371233.43295671      119.9994595      -.3105056941034      -44.1502525      26095.585531461

 SB1A                 428661.11029509  428661.11031416       .4286611103E-3  .42866111031E-3      91.875173747884  91.875173747884
                      -4.043653440775       -0.0005405      -.4043653441E-8       -0.0005405      -.299108509E-19        0.0000000

            TERRA                 0.0              0.0      -.4286611103E-3  .42866111031E-3                  0.0
                                  0.0              0.0      .40436534408E-8      179.9994595                  0.0

 SB1B                 -214334.0570541  428661.11031416      -.2143340571E-3  .42866111031E-3      91.875173747884  91.875173747884
                      -371229.3893033     -120.0005405      -.3712293893E-3     -120.0005405      .7355227538E-15        0.0000000

            TERRA                 0.0              0.0      .21433405705E-3  .42866111031E-3                  0.0
                                  0.0              0.0       .3712293893E-3       59.9994595                  0.0

 SB1C                 -214327.0532409  428661.11031416      -.2143270532E-3  .42866111031E-3      91.875173747884  91.875173747884
                      371233.43295671      119.9994595      .37123343296E-3      119.9994595      -.385108612E-15        0.0000000

            TERRA                 0.0              0.0      .21432705324E-3  .42866111031E-3                  0.0
                                  0.0              0.0       -.371233433E-3      -60.0005405                  0.0

 RSNSHA               135.16484673859   593.9106590303      -.6509917472025  .67180910981652      3.9890579322669  3.9890579322669
                      -578.3254577796      -76.8450986      -.1659434394808     -165.6993617      199.45740988815      199.4574099

            TERRA                 0.0              0.0      .65099174720249  .67180910981652                  0.0
                                  0.0              0.0      .16594343948079       14.3006383                  0.0

 RSNSHB               -568.4269614617   593.9106590303      .18178463941951  .67180910981652      3.9890579322669  3.9890579322669
                      172.10653791553      163.1549014      .64674711047177       74.3006383      199.45740988815      199.4574099

            TERRA                 0.0              0.0      -.1817846394195  .67180910981652                  0.0
                                  0.0              0.0      -.6467471104718     -105.6993617                  0.0

 RSNSHC               433.26211472307   593.9106590303      .46920710778297  .67180910981652      3.9890579322669  3.9890579322669
                      406.21891986403       43.1549014       -.480803670991      -45.6993617      199.45740988815      199.4574099

            TERRA                 0.0              0.0       -.469207107783  .67180910981652                  0.0
                                  0.0              0.0      .48080367099098      134.3006383                  0.0

 RSNNHA               145.94002775968  657.43138528047      .14594002776E-6  .65743138528E-6      .21610801318E-3  .21610801318E-3
                      -641.0284975329      -77.1743407      -.6410284975E-6      -77.1743407      -.258080351E-21        0.0000000

            TERRA                 0.0              0.0      -.1459400278E-6  .65743138528E-6                  0.0
                                  0.0              0.0      .64102849753E-6      102.8256593                  0.0

 RSNNHB               -628.1169772931  657.43138528047      -.6281169773E-6  .65743138528E-6      .21610801318E-3  .21610801318E-3
                      194.12647729757      162.8256593       .1941264773E-6      162.8256593      .1548482107E-20        0.0000000

            TERRA                 0.0              0.0      .62811697729E-6  .65743138528E-6                  0.0
                                  0.0              0.0      -.1941264773E-6      -17.1743407                  0.0

 RSNNHC               482.17694953343  657.43138528047      .48217694953E-6  .65743138528E-6      .21610801318E-3  .21610801318E-3
                      446.90202023535       42.8256593      .44690202024E-6       42.8256593      -.171391823E-20        0.0000000

            TERRA                 0.0              0.0      -.4821769495E-6  .65743138528E-6                  0.0
                                  0.0              0.0      -.4469020202E-6     -137.1743407                  0.0

 X0001B               -568.4269616054  593.91065904859      -.1622192129E-4  .55974760885E-4      .39164673202E-6  .39164673202E-6
                      172.10653750389      163.1549014      -.5357259678E-4     -106.8464486      -.0166220035591       -0.0166220

            TERRA                 0.0              0.0       .1622192129E-4  .55974760885E-4                  0.0
                                  0.0              0.0       .5357259678E-4       73.1535514                  0.0

 X0002B                -214334.057054  428661.11031373      .03498706968421  .04040035784002      .20402361420046  .20402361420046
                      -371229.3893028     -120.0005405      -.0202013333351      -30.0018905      -8659.031121985    -8659.0311220

            TERRA                 0.0              0.0      -.0349870696842  .04040035784002                  0.0
                                  0.0              0.0      .02020133333506      149.9981095                  0.0

 X0001A               135.16484716695  593.91065904859      .42836509805966   .4360187280153      5.4303823988128   .9505616559E-7
                      -578.3254576982      -76.8450986      .08133679330058       10.7511798      -129.3641583164              0.0

            LN1A      135.16484673859   593.9106590303      -.4283650980597   .4360187280153      -5.430382303757
                      -578.3254577796      -76.8450986      -.0813367933006     -169.2488202      129.36415831641

 SB1A                 428661.11029509  428661.11031416      .42840838432312  .44537262728603      91820.760684675  .99178386392E-7
                      -4.043653440775       -0.0005405      .12174988039959       15.8646817      -26095.58562271              0.0

            X0002A    428661.11029466  428661.11031373      -.4284083843231  .44537262728603      -91820.76068458
                      -4.043653562525       -0.0005405      -.1217498803996     -164.1353183       26095.58562271

 X0001B               -568.4269616054  593.91065904859      -.1437427954443  .43601870814494      5.4303765655686  .95056156928E-7
                      172.10653750389      163.1549014      -.4116434411117     -109.2488178      -129.3641526555        0.0000000

            LN1B      -568.4269614617   593.9106590303      .14374279544427  .43601870814494      -5.430376470512
                      172.10653791553      163.1549014      .41164344111166       70.7511822      129.36415265547

 SB1B                 -214334.0570541  428661.11031416      -.1087610144168  .44538443763318      91822.738009386  .99183644409E-7
                      -371229.3893033     -120.0005405      -.4319008439779     -104.1343137      -26097.88758647              0.0

            X0002B     -214334.057054  428661.11031373      .10876101441681  .44538443763318      -91822.73800929
                      -371229.3893028     -120.0005405      .43190084397793       75.8656863      26097.887586471

 X0001C               433.26211443845  593.91065904859      -.2846222173503  .43601872178738      5.4304045961836  .95056162878E-7
                      406.21892019433       43.1549014       .3303067046545      130.7511699      -129.3641555336              0.0

            LN1C      433.26211472307   593.9106590303      .28462221735026  .43601872178738      -5.430404501127
                      406.21891986403       43.1549014      -.3303067046545      -49.2488301      129.36415553357

 SB1C                 -214327.0532409  428661.11031416      -.3196473699063  .44537098788742      91819.929182121  .99177654533E-7
                      371233.43295671      119.9994595      .31013041734695      135.8657652      -26097.22599777              0.0

            X0002C    -214327.0532406  428661.11031373      .31964736990631  .44537098788742      -91819.92918202
                       371233.4329564      119.9994595       -.310130417347      -44.1342348      26097.225997773

 XX0005               428661.11029466  428661.11031373                  0.0              0.0                  0.0              0.0
                      -4.043653562525       -0.0005405                  0.0              0.0                  0.0              0.0

            X0002A    428661.11029466  428661.11031373                  0.0              0.0                  0.0
                      -4.043653562525       -0.0005405                  0.0              0.0                  0.0

 XX0003                -214334.057054  428661.11031373                  0.0              0.0                  0.0              0.0
                      -371229.3893028     -120.0005405                  0.0              0.0                  0.0              0.0

            X0002B     -214334.057054  428661.11031373                  0.0              0.0                  0.0
                      -371229.3893028     -120.0005405                  0.0              0.0                  0.0

 XX0004               -214327.0532406  428661.11031373                  0.0              0.0                  0.0              0.0
                       371233.4329564      119.9994595                  0.0              0.0                  0.0              0.0

            X0002C    -214327.0532406  428661.11031373                  0.0              0.0                  0.0
                       371233.4329564      119.9994595                  0.0              0.0                  0.0

 X0001A               135.16484716695  593.91065904859      .54506190404E-4  .55974760885E-4      .39164673202E-6  .39164673202E-6
                      -578.3254576982      -76.8450986      .12737702455E-4       13.1535514      -.0166220035591       -0.0166220

            TERRA                 0.0              0.0       -.545061904E-4  .55974760885E-4                  0.0
                                  0.0              0.0      -.1273770245E-4     -166.8464486                  0.0

 X0001A               135.16484716695  593.91065904859      -.4285259454475  .42852633025435      -28.79476106813  91817.407860628
                      -578.3254576982      -76.8450986      -.5742818041E-3     -179.9232161      123.95254312439        0.0000000

            X0002A    428661.11029466  428661.11031373      .42852594544749  .42852633025435      91846.202621697
                      -4.043653562525       -0.0005405      .57428180414E-3        0.0767839      -123.9525431244

 X0001B               -568.4269616054  593.91065904859      .21376563009243  .42852633025435      -28.79476106813  91817.407860628
                      172.10653750389      163.1549014      .37140149584034       60.0767839      123.95254312439        0.0000000

            X0002B     -214334.057054  428661.11031373      -.2137656300924  .42852633025435      91846.202621696
                      -371229.3893028     -120.0005405      -.3714014958403     -119.9232161      -123.9525431244

 X0001C               433.26211443845  593.91065904859      .21476031535506  .42852633025435      -28.79476106813  91817.407860628
                      406.21892019433       43.1549014      -.3708272140362      -59.9232161      123.95254312439        0.0000000

            X0002C    -214327.0532406  428661.11031373      -.2147603153551  .42852633025435      91846.202621697
                       371233.4329564      119.9994595       .3708272140362      120.0767839      -123.9525431244

 X0002C               -214327.0532406  428661.11031373      -.0349884027006  .04040035784002      .20402361419965  .20402361419965
                       371233.4329564      119.9994595       -.020199024483     -150.0018905      -8659.031121985    -8659.0311220

            TERRA                 0.0              0.0      .03498840270058  .04040035784002                  0.0
                                  0.0              0.0      .02019902448297       29.9981095                  0.0

 X0002A               428661.11029466  428661.11031373      .13330163747E-5  .04040035784002      .20402361420024  .20402361420024
                      -4.043653562525       -0.0005405      .04040035781803       89.9981095      -8659.031121985    -8659.0311220

            TERRA                 0.0              0.0      -.1333016375E-5  .04040035784002                  0.0
                                  0.0              0.0       -.040400357818      -90.0018905                  0.0

 X0001C               433.26211443845  593.91065904859      -.3828426911E-4  .55974760885E-4      .39164673202E-6  .39164673202E-6
                      406.21892019433       43.1549014      .40834894326E-4      133.1535514      -.0166220035591       -0.0166220

            TERRA                 0.0              0.0      .38284269113E-4  .55974760885E-4                  0.0
                                  0.0              0.0      -.4083489433E-4      -46.8464486                  0.0

 X0001A               135.16484716695  593.91065904859      .10634634806E-3  .08077531023739      23.364376032624  .40779067149665
                      -578.3254576982      -76.8450986      -.0807752402312      -89.9245661      5.4282351001512   -17307.1736308

            X0002A    428661.11029466  428661.11031373      -.1063463481E-3  .08077531023739      -22.95658536113
                      -4.043653562525       -0.0005405      .08077524023115       90.0754339      -17312.60186589

 X0001B               -568.4269616054  593.91065904859       -.070006583211  .08077531023739      23.364376032624  .40779067149657
                      172.10653750389      163.1549014      .04029552147656      150.0754339      5.4282351001514   -17307.1736308

            X0002B     -214334.057054  428661.11031373        .070006583211  .08077531023739      -22.95658536113
                      -371229.3893028     -120.0005405      -.0402955214766      -29.9245661      -17312.60186589

 X0001C               433.26211443845  593.91065904859      .06990023686294  .08077531023739      23.364376032624  .40779067149615
                      406.21892019433       43.1549014       .0404797187546       30.0754339      5.4282351001513   -17307.1736308

            X0002C    -214327.0532406  428661.11031373      -.0699002368629  .08077531023739      -22.95658536113
                       371233.4329564      119.9994595      -.0404797187546     -149.9245661      -17312.60186589

 LN1A                 135.16484673859   593.9106590303      1.0793568345047  1.1073205033529      1.4413193007417  1.4411031927284
                      -578.3254577796      -76.8450986      .24728024780314       12.9037592      -328.8215661091     -328.8215661

            VFF2A     145.94002775968  657.43138528047      -.1459400276E-6  .65743138557E-6      -.2161080133E-3
                      -641.0284975329      -77.1743407      .64102849787E-6      102.8256593      -.799971973E-13

 LN1B                 -568.4269614617   593.9106590303      -.3255274408007  1.1073205033529      1.4413193007425  1.4411031927293
                      172.10653791553      163.1549014      -1.058390562331     -107.0962408      -328.8215661091     -328.8215661

            VFF2B     -628.1169772931  657.43138528047      .62811697722E-6  .65743138538E-6      -.2161080132E-3
                      194.12647729757      162.8256593      -.1941264779E-6      -17.1743408      -.187435568E-12

 LN1C                 433.26211472307   593.9106590303       -.753829393704  1.1073205033529      1.4413193007422   1.441103192729
                      406.21891986403       43.1549014      .81111031452789      132.9037592      -328.8215661091     -328.8215661

            VFF2C     482.17694953343  657.43138528047      -.4821769503E-6  .65743138539E-6      -.2161080132E-3
                      446.90202023535       42.8256593      -.4469020196E-6     -137.1743408      -.328426715E-12
     Total network loss  P-loss  by summing injections =   2.757322983508E+05

Output for steady-state phasor switch currents.
      Node-K    Node-M            I-real            I-imag            I-magn          Degrees        Power            Reactive
      LN1A      COMPA        -6.50991748E-01   -1.65943522E-01    6.71809131E-01    -165.6994    3.98908184E+00    1.99457416E+02
      LN1B      COMPB         1.81784658E-01    6.46747097E-01    6.71809102E-01      74.3006    3.98905145E+00    1.99457408E+02
      LN1C      COMPC         4.69207155E-01   -4.80803655E-01    6.71809132E-01     -45.6994    3.98907135E+00    1.99457416E+02
      VFF2A     RSNNHA        1.45940028E-07   -6.41028498E-07    6.57431386E-07     -77.1743    2.16108013E-04    7.26969315E-14
      VFF2B     RSNNHB       -6.28116977E-07    1.94126478E-07    6.57431385E-07     162.8257    2.16108013E-04    1.44811798E-13
      VFF2C     RSNNHC        4.82176950E-07    4.46902019E-07    6.57431385E-07      42.8257    2.16108013E-04    3.50636801E-13
      VFF2A     SE2A              Open              Open              Open             Open          Open              Open
      VFF2B     SE2B              Open              Open              Open             Open          Open              Open
      VFF2C     SE2C              Open              Open              Open             Open          Open              Open
      X0001B    XX0003            Open              Open              Open             Open          Open              Open
      X0001C    XX0004            Open              Open              Open             Open          Open              Open
      XX0005    X0002A            Open              Open              Open             Open          Open              Open
      XX0003    X0002B            Open              Open              Open             Open          Open              Open
      XX0004    X0002C            Open              Open              Open             Open          Open              Open
      X0001A    XX0005            Open              Open              Open             Open          Open              Open
      VFUENA    IFUENA        4.28833416E-01    1.21749876E-01    4.45781483E-01      15.8497    9.19120172E+04   -2.60946938E+04
      VFUENB    IFUENB       -1.08978222E-01   -4.32255570E-01    4.45781483E-01    -104.1503    9.19120172E+04   -2.60946938E+04
      VFUENC    IFUENC       -3.19855193E-01    3.10505694E-01    4.45781483E-01     135.8497    9.19120172E+04   -2.60946938E+04
      COMPA     RSNSHA       -6.50991748E-01   -1.65943522E-01    6.71809131E-01    -165.6994    3.98908184E+00    1.99457416E+02
      COMPB     RSNSHB        1.81784658E-01    6.46747097E-01    6.71809102E-01      74.3006    3.98905145E+00    1.99457408E+02
      COMPC     RSNSHC        4.69207155E-01   -4.80803655E-01    6.71809132E-01     -45.6994    3.98907135E+00    1.99457416E+02

Solution at nodes with known voltage.   Nodes that are shorted together by switches are shown as a group of names, with the printed
result applying to the composite group.   The entry "MVA" is  SQRT( P**2 + Q**2 )  in units of power,  while  "P.F."  is the
associated power factor.
              Node                Source  node  voltage             Injected  source  current              Injected  source  power
              name         Rectangular            Polar          Rectangular            Polar            P  and  Q    MVA and P.F.

               VFUENA
              IFUENA       428660.705       428660.705      .42883341580831  .44578148325117      91912.017173974  95544.502443197
                                  0.0              0.0      .12174987595801       15.8497475      -26094.69383091        0.9619812

               VFUENB
              IFUENB     -214330.3525       428660.705      -.1089782224275  .44578148325361      91912.017175079   95544.50244372
                      -371231.0601341     -120.0000000      -.4322555700605     -104.1502525      -26094.69382894        0.9619812

               VFUENC
              IFUENC     -214330.3525       428660.705      -.3198551933998   .4457814832584      91912.017175196  95544.502444746
                      371231.06013415      120.0000000      .31050569410438      135.8497475      -26094.69383228        0.9619812

  +++  Node  "COMPC "  has no connected linear branches.  Add (to ground) the conductance  G = 1.00000000E-18  mhos.
  +++  Node  "COMPB "  has no connected linear branches.  Add (to ground) the conductance  G = 1.00000000E-18  mhos.
  +++  Node  "COMPA "  has no connected linear branches.  Add (to ground) the conductance  G = 1.00000000E-18  mhos.
Card of names for time-step loop output.          |  LN1A  LN1B  LN1C  COMPA COMPB COMPC SB1A  SB1B  SB1C  SE2A  SE2B  SE2C  VFF2A
Card of names for time-step loop output.          |  VFF2B VFF2C IFUENAIFUENBIFUENC
Card of names for time-step loop output.          |-5VFF2A VFF2B VFF2B VFF2C VFF2C VFF2A LN1A  LN1B  LN1B  LN1C  LN1C  LN1A
Card of names for time-step loop output.          |-5SB1A  SB1B  SB1B  SB1C  SB1C  SB1A
Blank card ending requests for output variables.  |BLANK OUTPUT

Column headings for the  55   EMTP output variables follow.  These are divided among the 5 possible classes as follows ....
  First  27     output variables are electric-network voltage differences (upper voltage minus lower voltage);
  Next   6     output variables are branch currents (flowing from the upper node to the lower node);
  Next   22     output variables belong to MODELS (with "MODELS" an internally-added upper name of pair).
   Step      Time      LN1A       LN1B       LN1C       COMPA      COMPB      COMPC      SB1A       SB1B       SB1C       SE2A
 

                       SE2B       SE2C       VFF2A      VFF2B      VFF2C      IFUENA     IFUENB     IFUENC     VFF2A      VFF2B
                                                                                                               VFF2B      VFF2C

                       VFF2C      LN1A       LN1B       LN1C       SB1A       SB1B       SB1C       VFUENA     VFUENB     VFUENC
                       VFF2A      LN1B       LN1C       LN1A       SB1B       SB1C       SB1A       IFUENA     IFUENB     IFUENC

                       COMPA      COMPB      COMPC      MODELS     MODELS     MODELS     MODELS     MODELS     MODELS     MODELS
                       RSNSHA     RSNSHB     RSNSHC     ANVOL      LONG       R0F        R1F        X0F        X1F        RDIVX

                       MODELS     MODELS     MODELS     MODELS     MODELS     MODELS     MODELS     MODELS     MODELS     MODELS
                       RINSER     CLOSE1     RPPOS      RPCERO     LPPOS      LPCERO     CPPOS      CPCERO     XP         CR

                       MODELS     MODELS     MODELS     MODELS     MODELS
                       SIMET      ENC1       ENC2       ENC1AS     ENC2AS
 ***      Phasor I(0) = -6.5099175E-01                     Switch  "LN1A  "  to  "COMPA "  closed in the steady-state.
 ***      Phasor I(0) =  1.8178466E-01                     Switch  "LN1B  "  to  "COMPB "  closed in the steady-state.
 ***      Phasor I(0) =  4.6920716E-01                     Switch  "LN1C  "  to  "COMPC "  closed in the steady-state.
 ***      Phasor I(0) =  1.4594003E-07                     Switch  "VFF2A "  to  "RSNNHA"  closed in the steady-state.
 ***      Phasor I(0) = -6.2811698E-07                     Switch  "VFF2B "  to  "RSNNHB"  closed in the steady-state.
 ***      Phasor I(0) =  4.8217695E-07                     Switch  "VFF2C "  to  "RSNNHC"  closed in the steady-state.
 ***      Phasor I(0) =  4.2883342E-01                     Switch  "VFUENA"  to  "IFUENA"  closed in the steady-state.
 ***      Phasor I(0) = -1.0897822E-01                     Switch  "VFUENB"  to  "IFUENB"  closed in the steady-state.
 ***      Phasor I(0) = -3.1985519E-01                     Switch  "VFUENC"  to  "IFUENC"  closed in the steady-state.
 ***      Phasor I(0) = -6.5099175E-01                     Switch  "COMPA "  to  "RSNSHA"  closed in the steady-state.
 ***      Phasor I(0) =  1.8178466E-01                     Switch  "COMPB "  to  "RSNSHB"  closed in the steady-state.
 ***      Phasor I(0) =  4.6920716E-01                     Switch  "COMPC "  to  "RSNSHC"  closed in the steady-state.
      0       0.0  135.164847 -568.42696 433.262115 135.164847 -568.42696 433.262115  428661.11 -214334.06 -214327.05        0.0
                          0.0        0.0 145.940028 -628.11698  482.17695 428660.705 -214330.35 -214330.35 774.057005 -1110.2939
                   336.236922 703.591808 -1001.6891 298.097268 642995.167 -7.0038132 -642988.16 .428833416 -.10897822 -.31985519
                   -.65099175 .181784658 .469207155        0.0   313.0547   1.350221   1.602828   7.560009   8.974377      .1786
                         400.    .052992     .01969    .185335    .360515   1.352208    .017698    .006588   883.8738   17.67748
                          0.0        0.0        0.0        1.0        0.0
    500     .5E-3  223.971004 -588.35218 364.381177 223.971004 -588.35218 364.381177 423384.221 -153622.18 -269762.04        0.0
                          0.0        0.0 244.422212 -650.75188  406.32967  423383.18 -153618.26 -269764.92 895.174095 -1057.0816
                   161.907458 812.323184 -952.73336 140.410173 577006.404 116139.857 -693146.26 .404523318 -.04002263 -.36450069
                   -.61701769  .07837304 .538644648        0.0   313.0547   1.350221   1.602828   7.560009   8.974377      .1786
                         400.    .052992     .01969    .185335    .360515   1.352208    .017698    .006588   883.8738   17.67748
                          0.0        0.0        0.0        1.0        0.0
   1000     .1E-2  307.261805    -593.79 286.528198 307.261805    -593.79 286.528198  407682.19 -89127.611 -318554.58        0.0
                          0.0        0.0 336.885912 -657.36312 320.477209 407680.557 -89123.572 -318556.98 994.249033 -977.84033
                   -16.408703 901.051809  -880.3182 -20.733607 496809.801 229426.969 -726236.77  .37023568 .029926873 -.40016255
                   -.56785058  -.0269684 .594818978        0.0   313.0547   1.350221   1.602828   7.560009   8.974377      .1786
                         400.    .052992     .01969    .185335    .360515   1.352208    .017698    .006588   883.8738   17.67748
                          0.0        0.0        0.0        1.0        0.0
   1500     .0015   382.98701 -584.60685 201.619837  382.98701 -584.60685 201.619837 381941.682 -22438.427 -359503.25        0.0
                          0.0        0.0 421.053906 -647.78765 226.733741 381939.485 -22434.368 -359505.12 1068.84155 -874.52139
                   -194.32017 967.593857 -786.22668 -181.36717 404380.109 337064.827 -741444.94 .326832796 .099138883 -.42597168
                   -.50470115 -.13164574 .636346886        0.0   313.0547   1.350221   1.602828   7.560009   8.974377      .1786
                         400.    .052992     .01969    .185335    .360515   1.352208    .017698    .006588   883.8738   17.67748
                          0.0        0.0        0.0        1.0        0.0
   2000      .002  449.281825 -561.02874 111.746919 449.281825 -561.02874 111.746919   346796.5 44803.2655 -391599.77        0.0
                          0.0        0.0 494.855446 -622.26217  127.40672 346793.795 44807.2448 -391601.04 1117.11761 -749.66889
                   -367.44873 1010.31057 -672.77566 -337.53491 301993.235 436403.031 -738396.27 .275382297 .165909717 -.44129201
                   -.42912424 -.23308151 .662205833        0.0   313.0547   1.350221   1.602828   7.560009   8.974377      .1786
                         400.    .052992     .01969    .185335    .360515   1.352208    .017698    .006588   883.8738   17.67748
                          0.0        0.0        0.0        1.0        0.0
   2500     .0025  504.513824 -523.63625 19.1224242 504.513824 -523.63625 19.1224242 303112.037 110941.753 -414053.79        0.0
                          0.0        0.0 556.470712 -581.41387 24.9431616 303108.891 110945.554 -414054.45 1137.88459 -606.35704
                   -531.52755 1028.15007 -542.75867  -485.3914 192170.284 524995.544 -717165.83  .21715097 .228595305 -.44574627
                    -.3429809 -.32877814 .671759056        0.0   313.0547   1.350221   1.602828   7.560009   8.974377      .1786
                         400.    .052992     .01969    .185335    .360515   1.352208    .017698    .006588   883.8738   17.67748
                          0.0        0.0        0.0        1.0        0.0
   3000      .003  547.324423 -473.35077 -73.973648 547.324423 -473.35077 -73.973648 251963.942 174348.491 -426312.43        0.0
                          0.0        0.0 604.384349  -526.2495 -78.134846 251960.441 174352.016 -426312.46 1130.63385 -448.11466
                    -682.5192  1020.6752 -399.37713 -621.29807 77615.4503 600660.924 -678276.37 .153568125 .285654384 -.43922251
                   -.24839229 -.41637905 .664771345        0.0   313.0547   1.350221   1.602828   7.560009   8.974377      .1786
                         400.    .052992     .01969    .185335    .360515   1.352208    .017698    .006588   883.8738   17.67748
                          0.0        0.0        0.0        1.0        0.0
   3500     .0035  576.655336 -411.40848 -165.24685 576.655336 -411.40848 -165.24685 194611.688 233462.175 -428073.86        0.0
                          0.0        0.0 637.415944 -458.12708 -179.28886 194607.888 233465.353 -428073.24 1095.54302 -278.83821
                   -816.70481  988.06382 -246.16163 -741.90219 -38850.487 661536.039 -622685.55 .086213577 .335674887 -.42188846
                   -.14768737 -.49372739 .641414764        0.0   313.0547   1.350221   1.602828   7.560009   8.974377      .1786
                         400.    .052992     .01969    .185335    .360515   1.352208    .017698    .006588   883.8738   17.67748
                          0.0        0.0        0.0        1.0        0.0
   4000      .004  591.788442 -339.33663 -252.45181 591.788442 -339.33663 -252.45181 132467.411 286827.265 -419294.68        0.0
                          0.0        0.0  654.75226 -378.72405 -276.02821 132463.443 286829.997 -419293.44 1033.47631 -102.69585
                   -930.78047 931.125072 -86.884818 -844.24025 -154359.85 706121.941 -551762.09  .01673056 .377432753 -.39416331
                   -.04334588 -.55891849 .602264425        0.0   313.0547   1.350221   1.602828   7.560009   8.974377      .1786
                         400.    .052992     .01969    .185335    .360515   1.352208    .017698    .006588   883.8738   17.67748
                          0.0        0.0        0.0        1.0        0.0
   4500     .0045  592.349717 -258.90916 -333.44056 592.349717 -258.90916 -333.44056 67061.3658 333129.706 -400191.07        0.0
                          0.0        0.0 655.966374 -289.99556 -365.97082 67057.3081 333131.936 -400189.24 945.961931 75.9752581
                   -1021.9372 851.258878 74.5313948 -925.79027 -266068.34 733320.777 -467252.44 -.05316452 .409897024 -.35673251
                   .062062844 -.61034716 .548284317        0.0   313.0547   1.350221   1.602828   7.560009   8.974377      .1786
                         400.    .052992     .01969    .185335    .360515   1.352208    .017698    .006588   883.8738   17.67748
                          0.0        0.0        0.0        1.0        0.0
   5000      .005  578.325441 -172.10653 -406.21892 578.325441 -172.10653 -406.21892 4.04387517 371229.389 -371233.43        0.0
                          0.0        0.0 641.028912 -194.12667 -446.90224 -.45661E-7  371231.06 -371231.06 835.155585 252.775567
                   -1087.9312 750.431966  234.11239 -984.54436 -371225.35 742462.822 -371237.48 -.12174986 .432267949 -.31051809
                   .165943418 -.64674708 .480803663        0.0   313.0547   1.350221   1.602828   7.560009   8.974377      .1786
                         400.    .052992     .01969    .185335    .360515   1.352208    .017698    .006588   883.8738   17.67748
                          0.0        0.0        0.0        1.0        0.0
   5500     .0055  550.060849 -81.066043 -468.99481 550.060849 -81.066043 -468.99481 -67053.377 400188.173  -333134.8        0.0
                          0.0        0.0 610.306217 -93.477257 -516.82896 -67057.308 400189.244 -333131.94 703.783475 423.351703
                   -1127.1352 631.126892 387.928762 -1019.0557 -467241.55 733322.969 -266081.42 -.18733749 .443995086 -.25665759
                    .26573795 -.66722193 .401483997        0.0   313.0547   1.350221   1.602828   7.560009   8.974377      .1786
                         400.    .052992     .01969    .185335    .360515   1.352208    .017698    .006588   883.8738   17.67748
                          0.0        0.0        0.0        1.0        0.0
   6000      .006  508.252415 11.9703282 -520.22274 508.252415 11.9703282 -520.22274 -132459.72 419292.993 -286833.28        0.0
                          0.0        0.0  564.55636 9.47358062 -574.02994 -132463.44  419293.44   -286830.  555.08278 583.503522
                   -1138.5863 496.282087 532.193071 -1028.4752 -551752.71  706126.27 -154373.56 -.24831131 .444789123 -.19647781
                    .35898907 -.67126755 .312278408        0.0   313.0547   1.350221   1.602828   7.560009   8.974377      .1786
                         400.    .052992     .01969    .185335    .360515   1.352208    .017698    .006588   883.8738   17.67748
                          0.0        0.0        0.0        1.0        0.0
   6500     .0065  453.928207 104.712387 -558.64059 453.928207 104.712387 -558.64059 -194604.46 428073.431 -233468.97        0.0
                          0.0        0.0 504.905165 112.191187 -617.09635 -194607.89  428073.24 -233465.35 392.713978  729.28754
                   -1122.0015  349.21582 663.352982 -1012.5688 -622677.89 661542.398 -38864.505 -.30317287 .434631966  -.1314591
                   .443400741 -.65878435 .215383597        0.0   313.0547   1.350221   1.602828   7.560009   8.974377      .1786
                         400.    .052992     .01969    .185335    .360515   1.352208    .017698    .006588   883.8738   17.67748
                          0.0        0.0        0.0        1.0        0.0
   7000      .007  388.427197 194.875874 -583.30307 388.427197 194.875874 -583.30307 -251957.41 426313.283 -174355.87        0.0
                          0.0        0.0 432.821527 212.146276  -644.9678 -251960.44 426312.457 -174352.02 220.675251  857.11408
                   -1077.7893 193.551324 778.178944 -971.73027 -678270.69 600669.158 77601.5343 -.35056761  .41377188 -.06320427
                   .516894407 -.63007967 .113185296        0.0   313.0547   1.350221   1.602828   7.560009   8.974377      .1786
                         400.    .052992     .01969    .185335    .360515   1.352208    .017698    .006588   883.8738   17.67748
                          0.0        0.0        0.0        1.0        0.0
   7500     .0075  313.361858 280.240853 -593.60271 313.361858 280.240853 -593.60271 -303106.32 414055.884 -110949.57        0.0
                          0.0        0.0 350.081042 306.877305 -656.95835 -303108.89 414054.446 -110945.55 43.2037365 963.835652
                   -1007.0394 33.1210051 873.843565 -906.96457  -717162.2 525005.449 192156.754 -.38933145 .382723975 .006607471
                   .577660365 -.58586039 .008200023        0.0   313.0547   1.350221   1.602828   7.560009   8.974377      .1786
                         400.    .052992     .01969    .185335    .360515   1.352208    .017698    .006588   883.8738   17.67748
                          0.0        0.0        0.0        1.0        0.0
   8000      .008  230.580501 358.705375 -589.28588 230.580501 358.705375 -589.28588 -346791.75 391603.055 -44811.309        0.0
                          0.0        0.0 258.719158 394.052601 -652.77176  -346793.8  391601.04 -44807.245 -135.33344 1046.82436
                   -911.49092 -128.12487 947.991251 -819.86638  -738394.8 436414.364 301980.437 -.41850784 .342251734 .076256111
                   .624202447 -.52721523 -.09698719        0.0   313.0547   1.350221   1.602828   7.560009   8.974377      .1786
                         400.    .052992     .01969    .185335    .360515   1.352208    .017698    .006588   883.8738   17.67748
                          0.0        0.0        0.0        1.0        0.0
   8500     .0085  142.118924 428.338676  -570.4576 142.118924 428.338676  -570.4576 -381938.01 359507.659 22430.3504        0.0
                          0.0        0.0 160.987197 471.524795 -632.51199 -381939.48 359505.117 22434.3679  -310.5376 1104.03679
                   -793.49919 -286.21975 998.796275 -712.57652 -741445.67 337077.308 404368.359 -.43737808 .293351561 .144026515
                   .655374597  -.4555883 -.19978627        0.0   313.0547   1.350221   1.602828   7.560009   8.974377      .1786
                         400.    .052992     .01969    .185335    .360515   1.352208    .017698    .006588   883.8738   17.67748
                          0.0        0.0        0.0        1.0        0.0
   9000      .009  50.1628825 487.422352 -537.58523 50.1628825 487.422352 -537.58523 -407679.69 318559.989 89119.6976        0.0
                          0.0        0.0 59.2914517 537.386352  -596.6778 -407680.56 318556.985  89123.572  -478.0949 1134.06416
                   -655.96926 -437.25947 1025.00759 -587.74812 -726239.67 229440.291 496799.384 -.44548081 .237229202  .20825161
                    .67040923 -.37274323 -.29766601        0.0   313.0547   1.350221   1.602828   7.560009   8.974377      .1786
                         400.    .052992     .01969    .185335    .360515   1.352208    .017698    .006588   883.8738   17.67748
                          0.0        0.0        0.0        1.0        0.0
   9500     .0095  -43.030644 534.505227 -491.47458 -43.030644 534.505227 -491.47458 -423382.95 269768.321 153614.629        0.0
                          0.0        0.0  -43.86431 590.015706  -546.1514 -423383.18 269764.922 153618.258 -633.88002  1136.1671
                   -502.28709 -577.53587 1025.97981 -448.44394 -693151.27 116153.692 576997.578  -.4426136 .175265105 .267348496
                    .66893617 -.28072001 -.38821612        0.0   313.0547   1.350221   1.602828   7.560009   8.974377      .1786
                         400.    .052992     .01969    .185335    .360515   1.352208    .017698    .006588   883.8738   17.67748
                          0.0        0.0        0.0        1.0        0.0
  10000       .01  -135.16488 568.426948 -433.26207 -135.16488 568.426948 -433.26207 -428661.11 214334.057 214327.053        0.0
                          0.0        0.0  -145.9399 628.116888 -482.17699 -428660.71 214330.353 214330.352 -774.05679 1110.29388
                   -336.23709 -703.59183 1001.68901 -298.09718 -642995.17 7.00403217 642988.164 -.42884749 .108985261 .319862233
                    .65099167 -.18178455 -.46920707        0.0   313.0547   1.350221   1.602828   7.560009   8.974377      .1786
                         400.    .052992     .01969    .185335    .360515   1.352208    .017698    .006588   883.8738   17.67748
                          0.0        0.0        0.0        1.0        0.0
  10500     .0105  -223.97077 588.352034 -364.38127 -223.97077 588.352034 -364.38127 -423384.21 153622.179 269762.035        0.0
                          0.0        0.0 -244.42214 650.751815 -406.32968 -423383.18 153618.258 269764.922 -895.17395 1057.08149
                   -161.90754  -812.3228 952.733302  -140.4105 -577006.39 -116139.86 693146.249 -.40452205 .040021992 .364500055
                   .617017606 -.07837304 -.53864463        0.0   313.0547   1.350221   1.602828   7.560009   8.974377      .1786
                         400.    .052992     .01969    .185335    .360515   1.352208    .017698    .006588   883.8738   17.67748
                          0.0        0.0        0.0        1.0        0.0
  11000      .011  -307.26179 593.789964 -286.52817 -307.26179 593.789964 -286.52817 -407682.19 89127.6115  318554.58        0.0
                          0.0        0.0 -336.88599 657.363123 -320.47713 -407680.56  89123.572 318556.985 -994.24912 977.840255
                   16.4088597 -901.05175 880.318137 20.7336179  -496809.8 -229426.97 726236.772 -.37023564 -.02992689 .400162532
                   .567850553 .026968427 -.59481892        0.0   313.0547   1.350221   1.602828   7.560009   8.974377      .1786
                         400.    .052992     .01969    .185335    .360515   1.352208    .017698    .006588   883.8738   17.67748
                          0.0        0.0        0.0        1.0        0.0
  11500     .0115  -382.98779 584.607219 -201.61943 -382.98779 584.607219 -201.61943 -381941.68 22438.4284 359503.255        0.0
                          0.0        0.0 -421.05438 647.787869 -226.73349 -381939.48 22434.3679 359505.117 -1068.8423 874.521356
                   194.320895 -967.59501 786.226645 181.368367 -404380.11 -337064.83 741444.939 -.32683302 -.09913877 .425971789
                   .504701085  .13164575 -.63634684        0.0   313.0547   1.350221   1.602828   7.560009   8.974377      .1786
                         400.    .052992     .01969    .185335    .360515   1.352208    .017698    .006588   883.8738   17.67748
                          0.0        0.0        0.0        1.0        0.0
  12000      .012  -449.28177 561.028692 -111.74692 -449.28177 561.028692 -111.74692  -346796.5 -44803.264 391599.767        0.0
                          0.0        0.0 -494.85504 622.261937  -127.4069  -346793.8 -44807.245  391601.04  -1117.117 749.668832
                   367.448147 -1010.3105  672.77561 337.534855 -301993.24 -436403.03 738396.269 -.27538223 -.16590975 .441291982
                    .42912422 .233081526 -.66220577        0.0   313.0547   1.350221   1.602828   7.560009   8.974377      .1786
                         400.    .052992     .01969    .185335    .360515   1.352208    .017698    .006588   883.8738   17.67748
                          0.0        0.0        0.0        1.0        0.0
  12500     .0125  -504.51383 523.636221 -19.122389 -504.51383 523.636221 -19.122389 -303112.04 -110941.75 414053.791        0.0
                          0.0        0.0 -556.47074 581.413857 -24.943119 -303108.89 -110945.55 414054.446 -1137.8846 606.356976
                   531.527619 -1028.1501  542.75861 485.391443 -192170.29 -524995.54 717165.829 -.21715067 -.22859546 .445746122
                   .342980876 .328778121   -.671759        0.0   313.0547   1.350221   1.602828   7.560009   8.974377      .1786
                         400.    .052992     .01969    .185335    .360515   1.352208    .017698    .006588   883.8738   17.67748
                          0.0        0.0        0.0        1.0        0.0
  13000      .013  -547.32304  473.35007 73.9729698 -547.32304  473.35007 73.9729698 -251963.95 -174348.49 426312.437        0.0
                          0.0        0.0 -604.38495 526.249789 78.1351628 -251960.44 -174352.02 426312.457 -1130.6347 448.114626
                   682.520115 -1020.6731 399.377101  621.29601 -77615.464 -600660.92 678276.388 -.15357268 -.28565211 .439224789
                   .248392272  .41637909 -.66477129        0.0   313.0547   1.350221   1.602828   7.560009   8.974377      .1786
                         400.    .052992     .01969    .185335    .360515   1.352208    .017698    .006588   883.8738   17.67748
                          0.0        0.0        0.0        1.0        0.0
  13500     .0135  -576.65527 411.408433 165.246838 -576.65527 411.408433 165.246838 -194611.67 -233462.18 428073.857        0.0
                          0.0        0.0 -637.41615 458.127161  179.28899 -194607.89 -233465.35  428073.24 -1095.5433 278.838171
                   816.705142 -988.06371 246.161595  741.90211 38850.5071 -661536.04 622685.532 -.08621285 -.33567525 .421888099
                   .147687287 .493727399 -.64141471        0.0   313.0547   1.350221   1.602828   7.560009   8.974377      .1786
                         400.    .052992     .01969    .185335    .360515   1.352208    .017698    .006588   883.8738   17.67748
                          0.0        0.0        0.0        1.0        0.0
  14000      .014  -591.78837 339.336576 252.451798 -591.78837 339.336576 252.451798 -132467.41 -286827.26 419294.677        0.0
                          0.0        0.0 -654.75223 378.724017 276.028216 -132463.44   -286830.  419293.44 -1033.4762 102.695801
                   930.780448 -931.12495 86.8847778 844.240171  154359.85 -706121.94 551762.091 -.01673024 -.37743291 .394163151
                   .043345866 .558918456 -.60226435        0.0   313.0547   1.350221   1.602828   7.560009   8.974377      .1786
                         400.    .052992     .01969    .185335    .360515   1.352208    .017698    .006588   883.8738   17.67748
                          0.0        0.0        0.0        1.0        0.0
  14500     .0145   -592.3497 258.909144 333.440551  -592.3497 258.909144 333.440551 -67061.372  -333129.7 400191.074        0.0
                          0.0        0.0 -655.96638 289.995553 365.970825 -67057.308 -333131.94 400189.244 -945.96193 -75.975272
                    1021.9372 -851.25884 -74.531407 925.790246 266068.331 -733320.78 467252.446 .053164029 -.40989678 .356732753
                   -.06206289 .610347147 -.54828425        0.0   313.0547   1.350221   1.602828   7.560009   8.974377      .1786
                         400.    .052992     .01969    .185335    .360515   1.352208    .017698    .006588   883.8738   17.67748
                          0.0        0.0        0.0        1.0        0.0
  % % % % % %   Suspended simulation;  plot data space exhausted;  SPY SPACE is required.   LIMBUF =  840000.
  % % % % % %   Suspended simulation;  plot data space exhausted;  SPY SPACE is required.   LIMBUF =  840000.
  +++  Time-sharing disabled.   Send  user-keyed interrupt to silence alarm.
   Current values.  INDBUF  INDBEG  LIMBUF  MFLUSH  NUMDCD  KCARD1  KCARD2
                    839994      50  840000    1000     230       1     231
Plot timespan now in memory (in sec) = 0.00000000E+00   1.49990000E-02
   ++++  Begin plot-data copy from memory to disk.   MFLUSH, INDBUF, N4, Tbeg,  Tend = 1001  839994       1  -1.00000E+00
1.00000E+19
  15000      .015  -578.32546 172.106521 406.218934 -578.32546 172.106521 406.218934 -4.0459524 -371229.39 371233.434        0.0
                          0.0        0.0 -641.02843 194.126422 446.902009 -.61533E-6 -371231.06  371231.06 -835.15485 -252.77559
                   1087.93044 -750.43198 -234.11241  984.54439 371225.342 -742462.82  371237.48 .121750126 -.43226808 .310517954
                   -.16594351 .646747057 -.48080358        0.0   313.0547   1.350221   1.602828   7.560009   8.974377      .1786
                         400.    .052992     .01969    .185335    .360515   1.352208    .017698    .006588   883.8738   17.67748
                          0.0        0.0        0.0        1.0        0.0
  15500     .0155  -550.06086 81.0660363 468.994826 -550.06086 81.0660363 468.994826 67053.3774 -400188.17 333134.796        0.0
                          0.0        0.0 -610.30625 93.4772639 516.828988 67057.3081 -400189.24 333131.936 -703.78352 -423.35172
                   1127.13524  -631.1269 -387.92879 1019.05569  467241.55 -733322.97 266081.418 .187337449 -.44399506 .256657615
                   -.26573793 .667221897 -.40148396        0.0   313.0547   1.350221   1.602828   7.560009   8.974377      .1786
                         400.    .052992     .01969    .185335    .360515   1.352208    .017698    .006588   883.8738   17.67748
                          0.0        0.0        0.0        1.0        0.0
  16000      .016  -508.25191 -11.970576 520.222487 -508.25191 -11.970576 520.222487 132459.722   -419293. 286833.274        0.0
                          0.0        0.0  -564.5567   -9.47341 574.030107 132463.443 -419293.44 286829.997 -555.08329 -583.50352
                    1138.5868 -496.28134 -532.19306  1028.4744 551752.717 -706126.27 154373.552 .248312155 -.44478954 .196477387
                   -.35898912 .671267516  -.3122784        0.0   313.0547   1.350221   1.602828   7.560009   8.974377      .1786
                         400.    .052992     .01969    .185335    .360515   1.352208    .017698    .006588   883.8738   17.67748
                          0.0        0.0        0.0        1.0        0.0
  16500     .0165  -453.92813 -104.71242 558.640557 -453.92813 -104.71242 558.640557 194604.469 -428073.43 233468.965        0.0
                          0.0        0.0 -504.90515  -112.1912 617.096345 194607.888 -428073.24 233465.353 -392.71395 -729.28754
                   1122.00149 -349.21571 -663.35298 1012.56869 622677.902  -661542.4 38864.4962 .303172703 -.43463188 .131459179
                   -.44340073 .658784302 -.21538362        0.0   313.0547   1.350221   1.602828   7.560009   8.974377      .1786
                         400.    .052992     .01969    .185335    .360515   1.352208    .017698    .006588   883.8738   17.67748
                          0.0        0.0        0.0        1.0        0.0
  17000      .017  -388.42695 -194.87598 583.302933 -388.42695 -194.87598 583.302933 251957.412 -426313.28 174355.873        0.0
                          0.0        0.0 -432.82148  -212.1463 644.967776 251960.441 -426312.46 174352.016 -220.67517 -857.11408
                   1077.78925 -193.55097 -778.17891 971.729885 678270.697 -600669.16 -77601.539 .350568881 -.41377251 .063203634
                   -.51689439 .630079623 -.11318529        0.0   313.0547   1.350221   1.602828   7.560009   8.974377      .1786
                         400.    .052992     .01969    .185335    .360515   1.352208    .017698    .006588   883.8738   17.67748
                          0.0        0.0        0.0        1.0        0.0
  17500     .0175  -313.36187 -280.24084 593.602704 -313.36187 -280.24084 593.602704 303106.318 -414055.88 110949.566        0.0
                          0.0        0.0 -350.08036 -306.87763 656.957992 303108.891 -414054.45 110945.554 -43.202723 -963.83563
                   1007.03835 -33.121031 -873.84354 906.964572 717162.201 -525005.45 -192156.75 .389331287  -.3827239 -.00660739
                   -.57766034 .585860306 -.00819991        0.0   313.0547   1.350221   1.602828   7.560009   8.974377      .1786
                         400.    .052992     .01969    .185335    .360515   1.352208    .017698    .006588   883.8738   17.67748
                          0.0        0.0        0.0        1.0        0.0
  18000      .018  -230.58055 -358.70534 589.285892 -230.58055 -358.70534 589.285892 346791.746 -391603.06 44811.3086        0.0
                          0.0        0.0 -258.71907 -394.05263 652.771704 346793.795 -391601.04 44807.2448 135.333564 -1046.8243
                   911.490774 128.124795 -947.99124  819.86644 738394.802 -436414.36 -301980.44 .418507747 -.34225168 -.07625606
                   -.62420242  .52721515 .096987299        0.0   313.0547   1.350221   1.602828   7.560009   8.974377      .1786
                         400.    .052992     .01969    .185335    .360515   1.352208    .017698    .006588   883.8738   17.67748
                          0.0        0.0        0.0        1.0        0.0
  18500     .0185  -142.12136 -428.33743 570.458794 -142.12136 -428.33743 570.458794  381938.01 -359507.66 -22430.351        0.0
                          0.0        0.0  -160.9862 -471.52527 632.511466 381939.485 -359505.12 -22434.368 310.539068 -1104.0367
                   793.497665  286.21607 -998.79623 712.580156 741445.669 -337077.31 -404368.36 .437379272 -.29335216 -.14402711
                   -.65537456 .455588241 .199786289        0.0   313.0547   1.350221   1.602828   7.560009   8.974377      .1786
                         400.    .052992     .01969    .185335    .360515   1.352208    .017698    .006588   883.8738   17.67748
                          0.0        0.0        0.0        1.0        0.0
  19000      .019  -50.162926 -487.42231 537.585236 -50.162926 -487.42231 537.585236 407679.693 -318559.99 -89119.701        0.0
                          0.0        0.0 -59.291265 -537.38642  596.67769 407680.557 -318556.98 -89123.572 478.095159 -1134.0641
                   655.968955 437.259385 -1025.0075 587.748161 726239.684 -229440.29 -496799.39 .445481162 -.23722938 -.20825179
                   -.67040919 .372743227 .297666009        0.0   313.0547   1.350221   1.602828   7.560009   8.974377      .1786
                         400.    .052992     .01969    .185335    .360515   1.352208    .017698    .006588   883.8738   17.67748
                          0.0        0.0        0.0        1.0        0.0
  19500     .0195  43.0307507 -534.50526 491.474512 43.0307507 -534.50526 491.474512 423382.948 -269768.32 -153614.63        0.0
                          0.0        0.0 43.8643815 -590.01573 546.151344  423383.18 -269764.92 -153618.26 633.880107 -1136.1671
                   502.286962 577.536013 -1025.9798 448.443761 693151.268 -116153.69 -576997.58 .442613753 -.17526518 -.26734857
                   -.66893613 .280720007 .388216113        0.0   313.0547   1.350221   1.602828   7.560009   8.974377      .1786
                         400.    .052992     .01969    .185335    .360515   1.352208    .017698    .006588   883.8738   17.67748
                          0.0        0.0        0.0        1.0        0.0
  20000       .02  135.164796 -568.42687 433.262077 135.164796 -568.42687 433.262077 428661.115 -214334.06 -214327.06        0.0
                          0.0        0.0 145.940039 -628.11692 482.176885 428660.705 -214330.35 -214330.35 774.056963 -1110.2938
                   336.236847  703.59167  -1001.689 298.097281 642995.175 -7.0040385 -642988.17 .428848043 -.10898553 -.31986251
                   -.65099164 .181784552 .469207121        0.0   313.0547   1.350221   1.602828   7.560009   8.974377      .1786
                         400.    .052992     .01969    .185335    .360515   1.352208    .017698    .006588   883.8738   17.67748
                          0.0        0.0        0.0        1.0        0.0
  20500     .0205  223.970766 -588.35201 364.381244 223.970766 -588.35201 364.381244 423384.215 -153622.18 -269762.04        0.0
                          0.0        0.0  244.42224 -650.75184 406.329598  423383.18 -153618.26 -269764.92 895.174079 -1057.0814
                   161.907358 812.322777 -952.73325 140.410477 577006.395 116139.857 -693146.25 .404521745 -.04002184  -.3644999
                   -.61701756 .078372896 .538644635        0.0   313.0547   1.350221   1.602828   7.560009   8.974377      .1786
                         400.    .052992     .01969    .185335    .360515   1.352208    .017698    .006588   883.8738   17.67748
                          0.0        0.0        0.0        1.0        0.0
  21000      .021  307.261841 -593.78997 286.528128 307.261841 -593.78997 286.528128 407682.192 -89127.612 -318554.58        0.0
                          0.0        0.0 336.885925 -657.36307 320.477141 407680.557 -89123.572 -318556.98 994.248991 -977.84021
                   -16.408784  901.05181  -880.3181 -20.733713 496809.804 229426.969 -726236.77 .370235447  .02992699 -.40016244
                   -.56785048 -.02696842  .59481896        0.0   313.0547   1.350221   1.602828   7.560009   8.974377      .1786
[...]
                         400.    .052992     .01969    .185335    .360515   1.352208    .017698    .006588   883.8738   17.67748
                          0.0        0.0        0.0        1.0        0.0
 113000      .113  -270313.73 -173423.04  443736.77 -270313.73 -173423.04  443736.77 -270313.73 -173423.04  443736.77        0.0
                          0.0        0.0 -184313.21 -164505.77 348818.978 -251960.44 -174352.02 426312.457 -19807.442 -513324.75
                   533132.188 -96890.694 -617159.81 714050.502 -96890.693 -617159.81 714050.502 -43.838561 -295.89542  339.73398
                   -312.18323 403.336428 -91.153231        0.0   313.0547   1.350221   1.602828   7.560009   8.974377      .1786
                         400.    .052992     .01969    .185335    .360515   1.352208    .017698    .006588   883.8738   17.67748
                          0.0        0.0        0.0        1.0        0.0
 113500     .1135    -208264. -233402.77 441666.773   -208264. -233402.77 441666.773   -208264. -233402.77 441666.773        0.0
                          0.0        0.0 -240758.97 -225823.41 466582.382 -194607.89 -233465.35  428073.24 -14935.554  -692405.8
                   707341.351 25138.7691 -675069.54 649930.775 25138.7697 -675069.55 649930.775 -56.489962 -311.42408 367.914046
                   -350.76375 366.056276 -15.292523        0.0   313.0547   1.350221   1.602828   7.560009   8.974377      .1786
                         400.    .052992     .01969    .185335    .360515   1.352208    .017698    .006588   883.8738   17.67748
                          0.0        0.0        0.0        1.0        0.0
 114000      .114  -126329.48 -288401.91 414731.385 -126329.48 -288401.91 414731.385 -126329.48 -288401.91 414731.386        0.0
                          0.0        0.0 -218384.31 -290980.35 509364.651 -132463.44   -286830.  419293.44 72596.0387   -800345.
                   727748.958 162072.433 -703133.29 541060.862 162072.434  -703133.3 541060.862 178.095421 -323.59464 145.499219
                   -381.13846 318.866303 62.2721311        0.0   313.0547   1.350221   1.602828   7.560009   8.974377      .1786
                         400.    .052992     .01969    .185335    .360515   1.352208    .017698    .006588   883.8738   17.67748
                          0.0        0.0        0.0        1.0        0.0
 114500     .1145  -77156.847 -333471.98 410628.828 -77156.847 -333471.98 410628.828 -77156.847 -333471.98 410628.828        0.0
                          0.0        0.0 -171089.54 -359840.54 530930.083 -67057.308 -333131.94 400189.244 188750.993 -890770.62
                   702019.628 256315.134 -744100.81 487785.674 256315.135 -744100.81 487785.675 19.8076431 -345.73625 325.928611
                   -396.09315 263.067637 133.025537        0.0   313.0547   1.350221   1.602828   7.560009   8.974377      .1786
                         400.    .052992     .01969    .185335    .360515   1.352208    .017698    .006588   883.8738   17.67748
                          0.0        0.0        0.0        1.0        0.0
 115000      .115  -12122.685 -371275.78 383398.466 -12122.685 -371275.78 383398.466 -12122.684 -371275.78 383398.466        0.0
                          0.0        0.0 -111793.69 -409366.43 521160.121 .127058E-4 -371231.06  371231.06 297572.738 -930526.55
                   632953.813 359153.097 -754674.25 395521.151 359153.099 -754674.25  395521.15  427.50367 -328.13689 -99.366781
                   -405.00166 199.538755 205.462847        0.0   313.0547   1.350221   1.602828   7.560009   8.974377      .1786
                         400.    .052992     .01969    .185335    .360515   1.352208    .017698    .006588   883.8738   17.67748
                          0.0        0.0        0.0        1.0        0.0
 115500     .1155  69518.9228 -402453.12 332934.201 69518.9228 -402453.12 332934.201 69518.9241 -402453.12   332934.2        0.0
                          0.0        0.0 26481.3916 -453304.02 426822.627 67057.3081 -400189.24 333131.936  479785.41 -880126.65
                   400341.236 471972.046 -735387.32 263415.278 471972.048 -735387.32 263415.276 645.474656 -277.81686  -367.6578
                   -400.14167 129.907358 270.234282        0.0   313.0547   1.350221   1.602828   7.560009   8.974377      .1786
                         400.    .052992     .01969    .185335    .360515   1.352208    .017698    .006588   883.8738   17.67748
                          0.0        0.0        0.0        1.0        0.0
 116000      .116  149343.769 -420639.28 271295.507 149343.769 -420639.28 271295.507  149343.77 -420639.28 271295.506        0.0
                          0.0        0.0 42533.0066 -490472.35 447939.343 132463.443 -419293.44 286829.997 533005.356 -938411.69
                   405406.337 569983.045 -691934.78 121951.738 569983.046 -691934.78 121951.735  736.00807 -165.24955 -570.75852
                   -382.27235 55.5664132 326.705906        0.0   313.0547   1.350221   1.602828   7.560009   8.974377      .1786
                         400.    .052992     .01969    .185335    .360515   1.352208    .017698    .006588   883.8738   17.67748
                          0.0        0.0        0.0        1.0        0.0
 116500     .1165  201816.854 -432936.93 231120.079 201816.854 -432936.93 231120.079 201816.855 -432936.93 231120.078        0.0
                          0.0        0.0 213166.422  -505998.2 292831.776 194607.888 -428073.24 233465.353  719164.62 -798829.97
                   79665.3544 634753.787 -664057.01 29303.2257 634753.788 -664057.01 29303.2227 776.561296 -73.242614 -703.31868
                   -352.61699 -20.840566 373.457555        0.0   313.0547   1.350221   1.602828   7.560009   8.974377      .1786
                         400.    .052992     .01969    .185335    .360515   1.352208    .017698    .006588   883.8738   17.67748
                          0.0        0.0        0.0        1.0        0.0
 117000      .117  247201.064  -430538.8 183337.732 247201.064  -430538.8 183337.732 247201.065  -430538.8 183337.731        0.0
                          0.0        0.0 329341.126 -506942.37 177601.246 251960.441 -426312.46 174352.016 836283.498 -684543.62
                   -151739.88  677739.86 -613876.53 -63863.332 677739.861 -613876.53 -63863.334  543.30673 21.0899112 -564.39664
                   -309.62717 -97.683278 407.310444        0.0   313.0547   1.350221   1.602828   7.560009   8.974377      .1786
                         400.    .052992     .01969    .185335    .360515   1.352208    .017698    .006588   883.8738   17.67748
                          0.0        0.0        0.0        1.0        0.0
 117500     .1175  319581.926 -419147.37 99565.4397 319581.926 -419147.37 99565.4397 319581.928 -419147.37 99565.4382        0.0
                          0.0        0.0 417741.128 -476898.62 59157.4919 303108.891 -414054.45 110945.554 894639.748 -536056.11
                   -358583.64 738729.293 -518712.81 -220016.49 738729.294  -518712.8 -220016.49  662.97227 121.946328  -784.9186
                   -260.70035 -173.12946 433.829807        0.0   313.0547   1.350221   1.602828   7.560009   8.974377      .1786
                         400.    .052992     .01969    .185335    .360515   1.352208    .017698    .006588   883.8738   17.67748
                          0.0        0.0        0.0        1.0        0.0
 118000      .118  366301.827 -394108.67 27806.8482 366301.827 -394108.67 27806.8482 366301.827 -394108.67 27806.8473        0.0
                          0.0        0.0 491794.657 -440633.94 -51160.715 346793.795 -391601.04 44807.2447   932428.6 -389473.23
                   -542955.37 760410.502 -421915.52 -338494.98 760410.502 -421915.52 -338494.98  300.82905 191.292186 -492.12124
                   -198.57483 -244.95834 443.533151        0.0   313.0547   1.350221   1.602828   7.560009   8.974377      .1786
                         400.    .052992     .01969    .185335    .360515   1.352208    .017698    .006588   883.8738   17.67748
                          0.0        0.0        0.0        1.0        0.0
 118500     .1185  398804.034 -355152.14 -43651.893 398804.034 -355152.14 -43651.893 398804.034 -355152.14 -43651.893        0.0
                          0.0        0.0 478478.881 -392940.14 -85538.744 381939.485 -359505.12 -22434.368 871419.017 -307401.39
                   -564017.63 753956.176 -311500.25 -442455.93 753956.176 -311500.25 -442455.93 2.11586104 227.343861 -229.45972
                   -130.16664 -311.39138 441.558016        0.0   313.0547   1.350221   1.602828   7.560009   8.974377      .1786
                         400.    .052992     .01969    .185335    .360515   1.352208    .017698    .006588   883.8738   17.67748
                          0.0        0.0        0.0        1.0        0.0
 119000      .119  394158.596 -320663.68 -73494.915 394158.596 -320663.68 -73494.915 394158.596 -320663.68 -73494.915        0.0
                          0.0        0.0 536241.951 -334757.58 -201484.37 407680.557 -318556.98 -89123.572 870999.528  -133273.2
                   -737726.32 714822.278 -247168.77 -467653.51 714822.277 -247168.77 -467653.51 -124.68119 222.879967 -98.198776
                   -58.241622 -370.71293 428.954584        0.0   313.0547   1.350221   1.602828   7.560009   8.974377      .1786
                         400.    .052992     .01969    .185335    .360515   1.352208    .017698    .006588   883.8738   17.67748
                          0.0        0.0        0.0        1.0        0.0
 119500     .1195  426724.587 -266628.01 -160096.57 426724.587 -266628.01 -160096.57 426724.586 -266628.01 -160096.57        0.0
                          0.0        0.0 500919.522 -266660.37 -234259.16  423383.18 -269764.92 -153618.26 767579.887 -32401.209
                   -735178.68   693352.6 -106531.44 -586821.16 693352.599 -106531.44 -586821.16 -257.32062 210.360159 46.9604602
                   17.2233048 -421.78461 404.561307        0.0   313.0547   1.350221   1.602828   7.560009   8.974377      .1786
                         400.    .052992     .01969    .185335    .360515   1.352208    .017698    .006588   883.8738   17.67748
                          0.0        0.0        0.0        1.0        0.0
  % % % % % %   Suspended simulation;  plot data space exhausted;  SPY SPACE is required.   LIMBUF =  840000.
  % % % % % %   Suspended simulation;  plot data space exhausted;  SPY SPACE is required.   LIMBUF =  840000.
  +++  Time-sharing disabled.   Send  user-keyed interrupt to silence alarm.
   Current values.  INDBUF  INDBEG  LIMBUF  MFLUSH  NUMDCD  KCARD1  KCARD2
                    839994      50  840000    1007     230       1     231
Plot timespan now in memory (in sec) = 1.04985997E-01   1.19985000E-01
   ++++  Begin plot-data copy from memory to disk.   MFLUSH, INDBUF, N4, Tbeg,  Tend = 1008  839994       1  -1.00000E+00
1.00000E+19
 120000       .12  430667.388 -216851.38 -213816.01 430667.388 -216851.38 -213816.01 430667.387 -216851.38 -213816.01        0.0
                          0.0        0.0 418879.875 -219501.97 -199377.91 428660.705 -214330.35 -214330.35 638381.841 -20124.055
                   -618257.79 647518.768 -3035.3728 -644483.39 647518.767 -3035.3722  -644483.4 -91.983305 197.367705  -105.3844
                   91.2904403 -463.42019 372.129754        0.0   313.0547   1.350221   1.602828   7.560009   8.974377      .1786
                         400.    .052992     .01969    .185335    .360515   1.352208    .017698    .006588   883.8738   17.67748
                          0.0        0.0        0.0        1.0        0.0

Extrema of output variables follow.   Order and column positioning are the same as for the preceding time-step loop output.
Variable maxima :  466112.517 443227.572  485926.96 466112.517 443227.572  485926.96 466112.518 443227.572 485926.959        0.0
                          0.0        0.0 609021.413 507813.347 663622.649 428660.705 428660.703 428660.703 968235.408 .1072754E7
                   .1170122E7 780414.481  805452.18 856569.857 780414.481 805452.179 856569.857 1009.53095 470.046201 802.169031
                   610.856136 448.266519 444.133206        0.0   313.0547   1.350221   1.602828   7.560009   8.974377      .1786
                         400.    .052992     .01969    .185335    .360515   1.352208    .017698    .006588   883.8738   17.67748
                          0.0        0.0        0.0        1.0        0.0
Times of maxima :     .099671     .10685     .07276    .099671     .10685     .07276    .099671     .10685     .07276        0.0
                          0.0        0.0    .099456    .107043    .073705        0.0    .006667    .113333    .098824    .064783
                      .071503    .118112    .064392    .072438    .118112    .064392    .072438    .073446    .081626    .066247
                      .064885    .111604    .118068        0.0        0.0        0.0        0.0        0.0        0.0        0.0
                          0.0        0.0        0.0        0.0        0.0        0.0        0.0        0.0        0.0        0.0
                          0.0        0.0        0.0        0.0        0.0
Variable minima :   -473350.1 -438861.24 -534031.67  -473350.1 -438861.24 -534031.67  -473350.1 -461966.27 -534031.67        0.0
                          0.0        0.0 -621663.97 -517737.87 -676041.83 -428660.71  -428660.7  -428660.7 -970762.45 -993956.49
                   -.115683E7 -781434.88 -803448.29 -876904.45 -781434.88 -885497.19 -876904.46 -897.28743 -666.99875 -988.95526
                   -405.10999 -542.44685  -545.7257        0.0   313.0547   1.350221   1.602828   7.560009   8.974377      .1786
                         400.    .052992     .01969    .185335    .360515   1.352208    .017698    .006588   883.8738   17.67748
                          0.0        0.0        0.0        1.0        0.0
Times of minima :     .090596    .116626    .063425    .090596    .116626    .063425    .090596    .055862    .063425        0.0
                          0.0        0.0    .090311    .116626    .063005        .01    .016667    .103333    .108348    .073736
                      .062996    .108741    .115216    .081415    .108741    .055859    .081415    .064489    .055814     .06155
                      .115146     .06159    .088328        0.0        0.0        0.0        0.0        0.0        0.0        0.0
                          0.0        0.0        0.0        0.0        0.0        0.0        0.0        0.0        0.0        0.0
                          0.0        0.0        0.0        0.0        0.0

Blank card terminating all plot cards.            |BLANK PLOT

Memory storage figures for the preceding, now-completed data case.  -------------------------------  Present   Program
A value of  "-9999"  indicates that no figure is available.         28-Feb-22  19:33:04              figure     limit  (name)
     Size List 1.   Number of electric network nodes.                                                   37      6000  (LBUS)
     Size List 2.   Number of electric network branches.                                                39     10000  (LBRNCH)
     Size List 3.   Number of data values in R, L, C tables.                                            45    192000  (LDATA)
     Size List 4.   Number of electric network sources.                                                  3       900  (LEXCT)
     Size List 5.   Storage for [Y] and triangularized [Y].   No. times =    3     Factors =    66     189    420000  (LYMAT)
     Size List 6.   Number of entries in switch table.                  No. flops = 18                  21      1200  (LSWTCH)
     Size List 7.   Number of distinct ALPHANUMERIC data names plus program SPY variables.              25     15000  (LSIZE7)
     Size List 8.   History points of distributed lines.                                              4493    120000  (LPAST)
     Size List 9.   Number of nonlinear elements.                                                        0      2250  (LNONL)
     Size List 10.  Points of nonlinear characteristics.                                                 0      3800  (LCHAR)
     Size List 11.  Number of Type-59 S.M. outputs.                                                      0       720  (LSMOUT)
     Size List 12.  Total number of EMTP output variables.                                              55      2000  (LSIZ12)
     Size List 13.  Working space for batch/SPY plotting.                                            -9999     72800  (LSIZ13)
     Size List 14.  S.M./U.M. connections to TACS.                                                   -9999       510  (LBSTAC)
     Size List 15.  Character storage in bytes for MODELS.                                            3296     90000  (LCTACS)
     Size List 16.  Total number of Type-59 S.M. masses.                                                 0       800  (LIMASS)
     Size List 17.  Number of Type-59 Synchronous machines.                                              0        90  (LSYN)
     Size List 18.  Branch and switch power/energy outputs.                                              0       254  (MAXPE)
     Size List 19.  Total floating-point TACS table space.                                              23    120000  (LTACST)
     Size List 20.  Non-copied recursive convolution data.                                               0    100000  (LFSEM)
     Size List 21.  Total modal/phase [T] matrix storage.                                                9      3000  (LFD)
     Size List 22.  Total recursive convolution history.                                                 0     15000  (LHIST)
     Size List 23.  Giant vectors for renumbering, phasors;  also extrema accumulation.                  93    192000  (LSIZ23)
     Size List 24.  Peak phases of compensation for data.                                                0       120  (LCOMP)
     Size List 25.  Total table space for all U.M usage.                                             -9999     45000  (LSPCUM)
     Size List 26.  Square of max number of coupled phases.                                              9    260000  (LSIZ26)
     Size List 27.  Maximum number of MODELS top variables.                                             44       600  (LSIZ27)
     Size List 28.  MODELS.  Total work space is divided into INTEGER and REAL.  1st, REAL:           1780    210000  (LRTACS)
                             Second  and last,  statistics for INTEGER work space.                    6838         0  (LITACS)
     Size List 29.  RAM disk used by "TAPSAV" table saving (limit is "LABCOM" size LTLABL).          -9999       600  (LSIZ29)
     Size List 30.  Taku Noda frequency-dependent circuits.                                              0        19  (LSIZ30)
Timing figures characterizing central processor (CP) solution speed.  ----------------------------   CP sec  Wait sec  Real sec
     Data input time (through blank card ending branches) ....                                       0.016     0.000     0.016
     Node renumbering and phasor solution  ....                                                      0.016     0.000     0.016
     After phasor solution, but before time-step loop  ....                                          0.000     0.000     0.000
     Integration of equations (time-step loop)  ....                                                 1.172     0.000     1.172
     Plotting or STATISTICS termination overlays ....                                                0.000     0.000     0.000
                                                                                                    ---------------------------
                                                                                          Totals      1.203     0.000     1.203

