   ---   236   cards of disk file read into card cache cells  1   onward.
 Comment card is ignored.      |C   LBUS  LBRNCH   LDATA   LEXCT   LYMAT  LSWTCH
 Limit CIDEAL cards =   200    |CARDS        200 { Limit of CIDEAL will be 2 mor
 1st card (Lists  1-10).       |    6000   10000  192000     900  420000    120
 Comment card is ignored.      |C LSMOUT  LSIZ12  LSIZ13  LBSTAC  LCTACS  LIMASS
 2nd card (Lists 11-20).       |     720    2000   72800     510   90000     80
 Comment card is ignored.      |C    LFD   LHIST  LSIZ23   NCOMP  LSPCUM  LSIZ26
 3rd card (Lists 21-30).       |    3000   15000  192000     120   45000  26000
 4th card (Lists 31-32).       |     200     300     { Optional card for Lists
 Comment card is ignored.      |C  LWORK  LMARTI
 Supplemental offsets.         |  840000     742
 <===> Done with  "/"-card sorting by data class.    Remember that the source file appears different from interpreted input data.
Alternative Transients Program (ATP),  GNU Linux or DOS.  All rights reserved by Can/Am user group of Portland, Oregon, USA.
 Date (dd-mth-yy) and time of day (hh.mm.ss) = 28-Feb-22  19:34:12   Name of disk plot file is  draw6.3\bernal\energizacion2210.pl4
Consult the 860-page ATP Rule Book of the Can/Am EMTP User Group in Portland,  Oregon, USA.  Source code date is 12 August 2008.
Total size of LABCOM tables = 10913436 INTEGER words.  31 VARDIM  List Sizes follow:  6002  10K  192K  900  420K  1200  15K
  120K  2250  3800  720  2K  72800  510  90K  800  90  254  120K  100K  3K  15K  192K  120  45K  260K  600  210K  1100  60  200
--------------------------------------------------+--------------------------------------------------------------------------------
Descriptive interpretation of input data cards.   |  Input data card images are shown below, all 80 columns, character by character
                                                  0         1         2         3         4         5         6         7         8
                                                  012345678901234567890123456789012345678901234567890123456789012345678901234567890
--------------------------------------------------+--------------------------------------------------------------------------------
Comment card.   NUMDCD = 1.                       |C data:C:\ATP\ATPDRAW6.3\BERNAL\ENERGIZACION2210.ATP
Marker card preceding new EMTP data case.         |BEGIN NEW DATA CASE
Comment card.   NUMDCD = 3.                       |C --------------------------------------------------------
Comment card.   NUMDCD = 4.                       |C Generated by ATPDRAW  febrero, lunes 28, 2022
Comment card.   NUMDCD = 5.                       |C A Bonneville Power Administration program
Comment card.   NUMDCD = 6.                       |C by H. K. Høidalen at SEfAS/NTNU - NORWAY 1994-2016
Comment card.   NUMDCD = 7.                       |C --------------------------------------------------------
Comment card.   NUMDCD = 8.                       |C  dT  >< Tmax >< Xopt >< Copt ><Epsiln>
Misc. data.     1.000E-06   1.200E-01   5.000E+01 |   1.E-6     .12     50.
Misc. data.    500    1  0  1  1  0  0  0  0  0   |     500       1       0       1       1       0       0       0       0
  ///  Warning.  Nonzero XOPT or COPT differs from the power frequency of  6.00000000E+01  Hz.   Did the user really want this?
No TACS data,  but MODELS data begins (next).     |MODELS
      Another ordinary MODELS data card.          |OUTPUT
      Another ordinary MODELS data card.          |  AnVol
      Another ordinary MODELS data card.          |  LONG
      Another ordinary MODELS data card.          |  R0F
      Another ordinary MODELS data card.          |  R1F
      Another ordinary MODELS data card.          |  X0F
      Another ordinary MODELS data card.          |  X1F
      Another ordinary MODELS data card.          |  RDIVX
      Another ordinary MODELS data card.          |  RINSER
      Another ordinary MODELS data card.          |  CLOSE1
      Another ordinary MODELS data card.          |  RPpos
      Another ordinary MODELS data card.          |  RPcero
      Another ordinary MODELS data card.          |  LPpos
      Another ordinary MODELS data card.          |  LPcero
      Another ordinary MODELS data card.          |  CPpos
      Another ordinary MODELS data card.          |  CPcero
      Another ordinary MODELS data card.          |  Xp
      Another ordinary MODELS data card.          |  CR
      Another ordinary MODELS data card.          |  SIMET
      Another ordinary MODELS data card.          |  ENC1
      Another ordinary MODELS data card.          |  ENC2
      Another ordinary MODELS data card.          |  ENC1AS
      Another ordinary MODELS data card.          |  ENC2AS
      Another ordinary MODELS data card.          |MODEL DEFAULT
      Another ordinary MODELS data card.          |DATA AnVol,LONG,R0F,R1F,X0F,X1F,RDIVX,RINSER,CLOSE1,RPpos,RPcero,LPpos,LPcero
      Another ordinary MODELS data card.          |OUTPUT o1,o2,o3, o4, o5, o6, o7, o8, o9, o10, o11, o12, o13
      Another ordinary MODELS data card.          |VAR o1,o2,o3, o4, o5, o6, o7, o8, o9, o10, o11, o12, o13
      Another ordinary MODELS data card.          |INIT
      Another ordinary MODELS data card.          |  o1:=AnVol
      Another ordinary MODELS data card.          |  o2:=LONG
      Another ordinary MODELS data card.          |  o3:=R0F
      Another ordinary MODELS data card.          |  o4:=R1F
      Another ordinary MODELS data card.          |  o5:=X0F
      Another ordinary MODELS data card.          |  O6:=X1F
      Another ordinary MODELS data card.          |  o7:=RDIVX
      Another ordinary MODELS data card.          |  o8:=RINSER
      Another ordinary MODELS data card.          |  o9:=CLOSE1
      Another ordinary MODELS data card.          |  o10:=RPpos
      Another ordinary MODELS data card.          |  o11:=RPcero
      Another ordinary MODELS data card.          |  o12:=LPpos
      Another ordinary MODELS data card.          |  o13:=LPcero
      Another ordinary MODELS data card.          |
      Another ordinary MODELS data card.          |ENDINIT
      Another ordinary MODELS data card.          |EXEC
      Another ordinary MODELS data card.          |ENDEXEC
      Another ordinary MODELS data card.          |ENDMODEL
      Another ordinary MODELS data card.          |MODEL DEFAULT1
      Another ordinary MODELS data card.          |DATA CPpos,CPcero,Xp,CR,SIMET,ENC1,ENC2,ENC1AS,ENC2AS
      Another ordinary MODELS data card.          |OUTPUT o1, o2, o3, o4, o5, o6, o7, o8, o9
      Another ordinary MODELS data card.          |VAR o1, o2, o3, o4, o5, o6, o7, o8, o9
      Another ordinary MODELS data card.          |INIT
      Another ordinary MODELS data card.          |  o1:=CPpos
      Another ordinary MODELS data card.          |  o2:=CPcero
      Another ordinary MODELS data card.          |  o3:=Xp
      Another ordinary MODELS data card.          |  o4:=CR
      Another ordinary MODELS data card.          |  o5:=SIMET
      Another ordinary MODELS data card.          |  o6:=ENC1
      Another ordinary MODELS data card.          |  o7:=ENC2
      Another ordinary MODELS data card.          |  o8:=ENC1AS
      Another ordinary MODELS data card.          |  o9:=ENC2AS
      Another ordinary MODELS data card.          |
      Another ordinary MODELS data card.          |ENDINIT
      Another ordinary MODELS data card.          |EXEC
      Another ordinary MODELS data card.          |ENDEXEC
      Another ordinary MODELS data card.          |ENDMODEL
      Another ordinary MODELS data card.          |USE DEFAULT AS DEFAULT
      Another ordinary MODELS data card.          |DATA
      Another ordinary MODELS data card.          |  AnVol:=      0.0
      Another ordinary MODELS data card.          |  LONG:= 304.8463
      Another ordinary MODELS data card.          |  R0F:=  2.97489
      Another ordinary MODELS data card.          |  R1F:= 3.204915
      Another ordinary MODELS data card.          |  X0F:= 17.23421
      Another ordinary MODELS data card.          |  X1F:=  18.5668
      Another ordinary MODELS data card.          |  RDIVX:= 0.172615
      Another ordinary MODELS data card.          |  RINSER:=     400.
      Another ordinary MODELS data card.          |  CLOSE1:= 0.055249
      Another ordinary MODELS data card.          |  RPpos:= 0.017828
      Another ordinary MODELS data card.          |  RPcero:= 0.294769
      Another ordinary MODELS data card.          |  LPpos:= 0.348724
      Another ordinary MODELS data card.          |  LPcero:= 0.989109
      Another ordinary MODELS data card.          |OUTPUT
      Another ordinary MODELS data card.          |  AnVol:=o1
      Another ordinary MODELS data card.          |  LONG:=o2
      Another ordinary MODELS data card.          |  R0F:=o3
      Another ordinary MODELS data card.          |  R1F:=o4
      Another ordinary MODELS data card.          |  X0F:=o5
      Another ordinary MODELS data card.          |  X1F:=o6
      Another ordinary MODELS data card.          |  RDIVX:=o7
      Another ordinary MODELS data card.          |  RINSER:=o8
      Another ordinary MODELS data card.          |  CLOSE1:=o9
      Another ordinary MODELS data card.          |  RPpos:=o10
      Another ordinary MODELS data card.          |  RPcero:=o11
      Another ordinary MODELS data card.          |  LPpos:=o12
      Another ordinary MODELS data card.          |  LPcero:=o13
      Another ordinary MODELS data card.          |ENDUSE
      Another ordinary MODELS data card.          |USE DEFAULT1 AS DEF
      Another ordinary MODELS data card.          |DATA
      Another ordinary MODELS data card.          |  CPpos:= 0.010497
      Another ordinary MODELS data card.          |  CPcero:= 0.009495
      Another ordinary MODELS data card.          |  Xp:= 1530.323
      Another ordinary MODELS data card.          |  CR:= 30.60646
      Another ordinary MODELS data card.          |  SIMET:=      0.0
      Another ordinary MODELS data card.          |  ENC1:=      0.0
      Another ordinary MODELS data card.          |  ENC2:=      0.0
      Another ordinary MODELS data card.          |  ENC1AS:=      0.0
      Another ordinary MODELS data card.          |  ENC2AS:=      0.0
      Another ordinary MODELS data card.          |OUTPUT
      Another ordinary MODELS data card.          |  CPpos:=o1
      Another ordinary MODELS data card.          |  CPcero:=o2
      Another ordinary MODELS data card.          |  Xp:=o3
      Another ordinary MODELS data card.          |  CR:=o4
      Another ordinary MODELS data card.          |  SIMET:=o5
      Another ordinary MODELS data card.          |  ENC1:=o6
      Another ordinary MODELS data card.          |  ENC2:=o7
      Another ordinary MODELS data card.          |  ENC1AS:=o8
      Another ordinary MODELS data card.          |  ENC2AS:=o9
      Another ordinary MODELS data card.          |ENDUSE
      Another ordinary MODELS data card.          |RECORD
      Another ordinary MODELS data card.          |  DEFAULT.o1 AS AnVOL
      Another ordinary MODELS data card.          |  DEFAULT.o2 AS LONG
      Another ordinary MODELS data card.          |  DEFAULT.o3 AS R0F
      Another ordinary MODELS data card.          |  DEFAULT.o4 AS R1F
      Another ordinary MODELS data card.          |  DEFAULT.o5 AS X0F
      Another ordinary MODELS data card.          |  DEFAULT.o6 AS X1F
      Another ordinary MODELS data card.          |  DEFAULT.o7 AS RDIVX
      Another ordinary MODELS data card.          |  DEFAULT.o8 AS RINSER
      Another ordinary MODELS data card.          |  DEFAULT.o9 AS CLOSE1
      Another ordinary MODELS data card.          |  DEFAULT.o10 AS RPpos
      Another ordinary MODELS data card.          |  DEFAULT.o11 AS RPcero
      Another ordinary MODELS data card.          |  DEFAULT.o12 AS LPpos
      Another ordinary MODELS data card.          |  DEFAULT.o13 AS LPcero
      Another ordinary MODELS data card.          |  DEF.o1 AS CPpos
      Another ordinary MODELS data card.          |  DEF.o2 AS CPcero
      Another ordinary MODELS data card.          |  DEF.o3 AS Xp
      Another ordinary MODELS data card.          |  DEF.o4 AS CR
      Another ordinary MODELS data card.          |  DEF.o5 AS SIMET
      Another ordinary MODELS data card.          |  DEF.o6 AS ENC1
      Another ordinary MODELS data card.          |  DEF.o7 AS ENC2
      Another ordinary MODELS data card.          |  DEF.o8 AS ENC1AS
      Another ordinary MODELS data card.          |  DEF.o9 AS ENC2AS
Termination of data for Laurent Dube`s MODELS.    |ENDMODELS
Comment card.   NUMDCD = 153.                     |C        1         2         3         4         5         6         7         8
Comment card.   NUMDCD = 154.                     |C 345678901234567890123456789012345678901234567890123456789012345678901234567890
Optional blank card follows last of MODELS data.  |BLANK MODELS
Comment card.   NUMDCD = 156.                     |C < n1 >< n2 ><ref1><ref2>< R  >< L  >< C  >
Comment card.   NUMDCD = 157.                     |C < n1 >< n2 ><ref1><ref2>< R  >< A  >< B  ><Leng><><>0
1st of coupled R-L.   2.97490E+00  5.48582E-02    |51IFUENASB1A              2.974917.234214207
2nd coil. 3.205E+00 5.910E-02 0.000E+00 0.000E+00 |52IFUENBSB1B              3.204918.566800074
Zca, Zcc=-7.667E-02-1.414E-03 3.128E+00 5.769E-02 |53IFUENCSB1C
Series R-L-C.   1.000E+09  0.000E+00  0.000E+00   |  SB1A                      1.E9                                               0
Series R-L-C.   1.000E+09  0.000E+00  0.000E+00   |  SB1B                      1.E9                                               0
Series R-L-C.   1.000E+09  0.000E+00  0.000E+00   |  SB1C                      1.E9                                               0
Series R-L-C.   1.000E+09  0.000E+00  0.000E+00   |  RSNSHA                    1.E9                                               0
Series R-L-C.   1.000E+09  0.000E+00  0.000E+00   |  RSNSHB                    1.E9                                               0
Series R-L-C.   1.000E+09  0.000E+00  0.000E+00   |  RSNSHC                    1.E9                                               0
Series R-L-C.   1.000E+09  0.000E+00  0.000E+00   |  RSNNHA                    1.E9                                               0
Series R-L-C.   1.000E+09  0.000E+00  0.000E+00   |  RSNNHB                    1.E9                                               0
Series R-L-C.   1.000E+09  0.000E+00  0.000E+00   |  RSNNHC                    1.E9                                               0
Series R-L-C.   1.000E+09  0.000E+00  0.000E+00   |  SE2A                      1.E9                                               0
Series R-L-C.   1.000E+09  0.000E+00  0.000E+00   |  SE2B                      1.E9                                               0
Series R-L-C.   1.000E+09  0.000E+00  0.000E+00   |  SE2C                      1.E9                                               0
Series R-L-C.   2.500E+02  0.000E+00  3.000E-10   |  X0001B                    250.       .0003                                   0
Series R-L-C.   2.500E+02  0.000E+00  3.000E-10   |  X0002B                    250.       .0003                                   0
Series R-L-C.   1.000E-06  0.000E+00  0.000E+00   |  X0001ALN1A               1.E-6                                               0
Series R-L-C.   1.000E-06  0.000E+00  0.000E+00   |  SB1A  X0002A             1.E-6                                               0
Series R-L-C.   1.000E-06  0.000E+00  0.000E+00   |  X0001BLN1B               1.E-6                                               0
Series R-L-C.   1.000E-06  0.000E+00  0.000E+00   |  SB1B  X0002B             1.E-6                                               0
Series R-L-C.   1.000E-06  0.000E+00  0.000E+00   |  X0001CLN1C               1.E-6                                               0
Series R-L-C.   1.000E-06  0.000E+00  0.000E+00   |  SB1C  X0002C             1.E-6                                               0
Series R-L-C.   4.000E+02  0.000E+00  0.000E+00   |  XX0005X0002A              400.                                               0
Series R-L-C.   4.000E+02  0.000E+00  0.000E+00   |  XX0003X0002B              400.                                               0
Series R-L-C.   4.000E+02  0.000E+00  0.000E+00   |  XX0004X0002C              400.                                               0
Series R-L-C.   2.500E+02  0.000E+00  3.000E-10   |  X0001A                    250.       .0003                                   0
Series R-L-C.   1.000E+06  0.000E+00  0.000E+00   |  X0001AX0002A              1.E6                                               0
Series R-L-C.   1.000E+06  0.000E+00  0.000E+00   |  X0001BX0002B              1.E6                                               0
Series R-L-C.   1.000E+06  0.000E+00  0.000E+00   |  X0001CX0002C              1.E6                                               0
Series R-L-C.   2.500E+02  0.000E+00  3.000E-10   |  X0002C                    250.       .0003                                   0
Series R-L-C.   2.500E+02  0.000E+00  3.000E-10   |  X0002A                    250.       .0003                                   0
Series R-L-C.   2.500E+02  0.000E+00  3.000E-10   |  X0001C                    250.       .0003                                   0
Series R-L-C.   1.250E+02  0.000E+00  6.000E-10   |  X0001AX0002A              125.       .0006                                   0
Series R-L-C.   1.250E+02  0.000E+00  6.000E-10   |  X0001BX0002B              125.       .0006                                   0
Series R-L-C.   1.250E+02  0.000E+00  6.000E-10   |  X0001CX0002C              125.       .0006                                   0
 2.948E-01 9.891E-01 9.490E-03 5.760E+02 1.666E-03|-1LN1A  VFF2A             .29477.98911.00949304.85 0 0                         0
 1.783E-02 3.487E-01 1.050E-02 3.251E+02 1.041E-03|-2LN1B  VFF2B             .01783.34872 .0105304.85 0 0                         0
3rd or later transposed distributed phase.        |-3LN1C  VFF2C                                                                  0
Blank card ending branches.  IBR, NTOT = 39  31   |BLANK BRANCH
Comment card.   NUMDCD = 198.                     |C < n 1>< n 2>< Tclose ><Top/Tde ><   Ie   ><Vf/CLOP ><  type  >
Switch.  -1.00E+00  1.00E+01  0.00E+00  0.00E+00  |  LN1A  COMPA        -1.       10.                                             0
Switch.  -1.00E+00  1.00E+01  0.00E+00  0.00E+00  |  LN1B  COMPB        -1.       10.                                             0
Switch.  -1.00E+00  1.00E+01  0.00E+00  0.00E+00  |  LN1C  COMPC        -1.       10.                                             0
Switch.  -1.00E+00  1.00E+01  0.00E+00  0.00E+00  |  VFF2A RSNNHA       -1.       10.                                             0
Switch.  -1.00E+00  1.00E+01  0.00E+00  0.00E+00  |  VFF2B RSNNHB       -1.       10.                                             0
Switch.  -1.00E+00  1.00E+01  0.00E+00  0.00E+00  |  VFF2C RSNNHC       -1.       10.                                             0
Switch.   2.00E+00 -1.00E+00  0.00E+00  0.00E+00  |  VFF2A SE2A          2.       -1.                                             0
Switch.   2.00E+00 -1.00E+00  0.00E+00  0.00E+00  |  VFF2B SE2B          2.       -1.                                             0
Switch.   2.00E+00 -1.00E+00  0.00E+00  0.00E+00  |  VFF2C SE2C          2.       -1.                                             0
Switch.   5.52E-02  1.00E+03  0.00E+00  0.00E+00  |  X0001BXX0003.055248644      1.E3                                             0
Switch.   5.52E-02  1.00E+03  0.00E+00  0.00E+00  |  X0001CXX0004.055248644      1.E3                                             0
Switch.   6.27E-02  1.00E+03  0.00E+00  0.00E+00  |  XX0005X0002A.062748644      1.E3                                             0
Switch.   6.27E-02  1.00E+03  0.00E+00  0.00E+00  |  XX0003X0002B.062748644      1.E3                                             0
Switch.   6.27E-02  1.00E+03  0.00E+00  0.00E+00  |  XX0004X0002C.062748644      1.E3                                             0
Switch.   5.52E-02  1.00E+03  0.00E+00  0.00E+00  |  X0001AXX0005.055248644      1.E3                                             0
Permanently-closed switch used for metering.      |  VFUENAIFUENA                                        MEASURING                1
Permanently-closed switch used for metering.      |  VFUENBIFUENB                                        MEASURING                1
Permanently-closed switch used for metering.      |  VFUENCIFUENC                                        MEASURING                1
Permanently-closed switch used for metering.      |  COMPA RSNSHA                                        MEASURING                1
Permanently-closed switch used for metering.      |  COMPB RSNSHB                                        MEASURING                1
Permanently-closed switch used for metering.      |  COMPC RSNSHC                                        MEASURING                1
Blank card ending switches.   KSWTCH = 21.        |BLANK SWITCH
Comment card.   NUMDCD = 221.                     |C < n 1><>< Ampl.  >< Freq.  ><Phase/T0><   A1   ><   T1   >< TSTART >< TSTOP  >
Source.   4.29E+05  5.00E+01  0.00E+00 -1.00E+00  |14VFUENA  428660.705       50.                                     -1.      100.
Source.   4.29E+05  5.00E+01 -1.20E+02 -1.00E+00  |14VFUENB  428660.705       50.     -120.                           -1.      100.
Source.   4.29E+05  5.00E+01 -2.40E+02 -1.00E+00  |14VFUENC  428660.705       50.     -240.                           -1.      100.
Blank card ends electric sources.  KCONST = 3     |BLANK SOURCE
Pi-equivalent branches of distributed circuits are added to the table of List Size 3 between indices  40   and  45.

Sinusoidal steady-state phasor solution, branch by branch.   All flows are away from a bus,  and the real part,  magnitude,  or  "P"
is printed above the imaginary part,  the angle,  or  "Q".   The first solution frequency  =  5.00000000E+01  Hertz.
  Bus K                        Phasor  node  voltage              Phasor  branch  current               Power flow       Power loss
             Bus M         Rectangular            Polar          Rectangular            Polar            P  and  Q        P  and  Q

 IFUENA                    428660.705       428660.705      .42893121937083  .44583156838038      91932.979446005  .31851223596246
                                  0.0              0.0      .12158863603793       15.8263808        -26060.135222        1.8452223

            SB1A      428661.58783023  428661.58791163      -.4289312193708  .44583156838038      -91932.66093377
                      -8.353559615196       -0.0011166      -.1215886360379     -164.1736192      26061.980444323

 IFUENB                  -214330.3525       428660.705      -.1091667620704  .44583156838037      91932.979446326  .31851223596153
                      -371231.0601341     -120.0000000       -.432259650469     -104.1736192      -26060.13522086        1.8452223

            SB1B        -214338.02831  428661.58791163      .10916676207044  .44583156838037      -91932.66093409
                      -371227.6479077     -120.0011166      .43225965046897       75.8263808      26061.980443179

 IFUENC                  -214330.3525       428660.705      -.3197644573075  .44583156837984      91932.979445712    .318512235962
                      371231.06013415      120.0000000       .3106710144298      135.8263808      -26060.13522261        1.8452223

            SB1C      -214323.5595203  428661.58791163      .31976445730754  .44583156837984      -91932.66093348
                      371236.00146736      119.9988834      -.3106710144298      -44.1736192      26061.980444931

 SB1A                 428661.58783023  428661.58791163      .42866158783E-3  .42866158791E-3      91.875378475459  91.875378475459
                      -8.353559615196       -0.0011166      -.8353559615E-8       -0.0011166      -.707272511E-19        0.0000000

            TERRA                 0.0              0.0      -.4286615878E-3  .42866158791E-3                  0.0
                                  0.0              0.0      .83535596152E-8      179.9988834                  0.0

 SB1B                   -214338.02831  428661.58791163      -.2143380283E-3  .42866158791E-3      91.875378475459  91.875378475459
                      -371227.6479077     -120.0011166      -.3712276479E-3     -120.0011166       -.44408921E-15        0.0000000

            TERRA                 0.0              0.0      .21433802831E-3  .42866158791E-3                  0.0
                                  0.0              0.0      .37122764791E-3       59.9988834                  0.0

 SB1C                 -214323.5595203  428661.58791163      -.2143235595E-3  .42866158791E-3      91.875378475459  91.875378475459
                      371236.00146736      119.9988834      .37123600147E-3      119.9988834      -.961036806E-15        0.0000000

            TERRA                 0.0              0.0      .21432355952E-3  .42866158791E-3                  0.0
                                  0.0              0.0      -.3712360015E-3      -60.0011166                  0.0

 RSNSHA               78.713451641926  418.10096524808      .78713451642E-7  .41810096525E-6      .87404208571E-4  .87404208571E-4
                      -410.6246578957      -79.1484967      -.4106246579E-6      -79.1484967      .8089826391E-21        0.0000000

            TERRA                 0.0              0.0      -.7871345164E-7  .41810096525E-6                  0.0
                                  0.0              0.0       .4106246579E-6      100.8515033                  0.0

 RSNSHB                -394.968110979  418.10096524808       -.394968111E-6  .41810096525E-6      .87404208571E-4  .87404208571E-4
                       137.1444802064      160.8515033      .13714448021E-6      160.8515033      .8122913615E-21        0.0000000

            TERRA                 0.0              0.0      .39496811098E-6  .41810096525E-6                  0.0
                                  0.0              0.0      -.1371444802E-6      -19.1484967                  0.0

 RSNSHC               316.25465933704  418.10096524808      .31625465934E-6  .41810096525E-6      .87404208571E-4  .87404208571E-4
                      273.48017768933       40.8515033      .27348017769E-6       40.8515033      .1389663429E-20        0.0000000

            TERRA                 0.0              0.0      -.3162546593E-6  .41810096525E-6                  0.0
                                  0.0              0.0      -.2734801777E-6     -139.1484967                  0.0

 RSNNHA               81.886973831848  441.48834876763      .81886973832E-7  .44148834877E-6      .97455981049E-4  .97455981049E-4
                      -433.8277142072      -79.3109189      -.4338277142E-6      -79.3109189       .617076737E-21        0.0000000

            TERRA                 0.0              0.0      -.8188697383E-7  .44148834877E-6                  0.0
                                  0.0              0.0      .43382771421E-6      100.6890811                  0.0

 RSNNHB               -416.6493082851  441.48834876763      -.4166493083E-6  .44148834877E-6      .97455981049E-4  .97455981049E-4
                      145.99765752618      160.6890811      .14599765753E-6      160.6890811      -.497962729E-21        0.0000000

            TERRA                 0.0              0.0      .41664930829E-6  .44148834877E-6                  0.0
                                  0.0              0.0      -.1459976575E-6      -19.3109189                  0.0

 RSNNHC               334.76233445324  441.48834876764      .33476233445E-6  .44148834877E-6      .97455981049E-4  .97455981049E-4
                      287.83005668101       40.6890811      .28783005668E-6       40.6890811      .1584878054E-20        0.0000000

            TERRA                 0.0              0.0      -.3347623345E-6  .44148834877E-6                  0.0
                                  0.0              0.0      -.2878300567E-6     -139.3109189                  0.0

 X0001B               -394.9681111229  418.10096524901      -.1292643979E-4  .39405087616E-4      .19409511625E-6  .19409511625E-6
                      137.14447979474      160.8515034      -.3722456292E-4     -109.1498466      -.0082376525816       -0.0082377

            TERRA                 0.0              0.0      .12926439789E-4  .39405087616E-4                  0.0
                                  0.0              0.0      .37224562917E-4       70.8501534                  0.0

 X0002B               -214338.0283098   428661.5879112      .03498690555273  .04040040285252      .20402406883072  .20402406883072
                      -371227.6479073     -120.0011166      -.0202017076132      -30.0024666      -8659.050417104    -8659.0504171

            TERRA                 0.0              0.0      -.0349869055527  .04040040285252                  0.0
                                  0.0              0.0      .02020170761323      149.9975334                  0.0

 X0001A               78.713452070397  418.10096524901       .4284702441737  .43609296584525      .19576383230952  .95088537429E-7
                      -410.6246578146      -79.1484966      .08118081495923       10.7284694      -91.16523479243              0.0

            LN1A      78.713451641926  418.10096524808      -.4284702441737  .43609296584525       -.195763737221
                      -410.6246578957      -79.1484967      -.0811808149592     -169.2715306      91.165234792435

 SB1A                 428661.58783023  428661.58791163      .42852479964495  .44544057121764       91845.55267122  .99208662618E-7
                      -8.353559615196       -0.0011166      .12158864493017       15.8406390      -26061.98065268        0.0000000

            X0002A     428661.5878298   428661.5879112      -.4285247996449  .44544057121764      -91845.55267112
                      -8.353559736785       -0.0011166      -.1215886449302     -164.1593610      26061.980652677

 X0001B               -394.9681111229  418.10096524901      -.1439304924133   .4360929637921      .19576805212755  .95088536536E-7
                      137.14447979474      160.8515034       -.411656515098     -109.2715333      -91.16523435416              0.0

            LN1B       -394.968110979  418.10096524808      .14393049241335   .4360929637921       -.195767957039
                       137.1444802064      160.8515033        .411656515098       70.7284667       91.16523435416

 SB1B                   -214338.02831  428661.58791163        -.10896474123  .44543423067853      91844.411114921  .99205827553E-7
                      -371227.6479077     -120.0011166      -.4319008439779     -104.1597256      -26061.02536597        0.0000000

            X0002B    -214338.0283098   428661.5879112      .10896474123001  .44543423067853      -91844.41111482
                      -371227.6479073     -120.0011166      .43190084397793       75.8402744      26061.025365971

 X0001C                316.2546590525  418.10096524901      -.2845397375495  .43609293806131      .19576780978591  .95088525311E-7
                      273.48017801981       40.8515034      .33047570013878      130.7284668      -91.16522897563              0.0

            LN1C      316.25465933704  418.10096524808      .28453973754949  .43609293806131      -.1957677146974
                      273.48017768933       40.8515033      -.3304757001388      -49.2715332      91.165228975634

 SB1C                 -214323.5595203  428661.58791163      -.3195600584149  .44542995968858      91842.825803581  .99203923298E-7
                      371236.00146736      119.9988834      .31030504032969      135.8418236      -26063.25876705        0.0000000

            X0002C      -214323.55952   428661.5879112      .31956005841494  .44542995968858      -91842.82580348
                      371236.00146705      119.9988834      -.3103050403297      -44.1581764      26063.258767047

 XX0005                428661.5878298   428661.5879112                  0.0              0.0                  0.0              0.0
                      -8.353559736785       -0.0011166                  0.0              0.0                  0.0              0.0

            X0002A     428661.5878298   428661.5879112                  0.0              0.0                  0.0
                      -8.353559736785       -0.0011166                  0.0              0.0                  0.0

 XX0003               -214338.0283098   428661.5879112                  0.0              0.0                  0.0              0.0
                      -371227.6479073     -120.0011166                  0.0              0.0                  0.0              0.0

            X0002B    -214338.0283098   428661.5879112                  0.0              0.0                  0.0
                      -371227.6479073     -120.0011166                  0.0              0.0                  0.0

 XX0004                 -214323.55952   428661.5879112                  0.0              0.0                  0.0              0.0
                      371236.00146705      119.9988834                  0.0              0.0                  0.0              0.0

            X0002C      -214323.55952   428661.5879112                  0.0              0.0                  0.0
                      371236.00146705      119.9988834                  0.0              0.0                  0.0

 X0001A               78.713452070397  418.10096524901      .38700637026E-4  .39405087616E-4      .19409511625E-6  .19409511625E-6
                      -410.6246578146      -79.1484966      .74176562206E-5       10.8501534      -.0082376525816       -0.0082377

            TERRA                 0.0              0.0      -.3870063703E-4  .39405087616E-4                  0.0
                                  0.0              0.0      -.7417656221E-5     -169.1498466                  0.0

 X0001A               78.713452070397  418.10096524901      -.4285828743777  .42858306316502      -16.78502755426  91841.721015958
                      -410.6246578146      -79.1484966      -.4022710981E-3     -179.9462218      88.009180141666        0.0000000

            X0002A     428661.5878298   428661.5879112      .42858287437773  .42858306316502      91858.506043512
                      -8.353559736785       -0.0011166      .40227109808E-3        0.0537782      -88.00918014167

 X0001B               -394.9681111229  418.10096524901      .21394306019872  .42858306316502      -16.78502755426  91841.721015958
                      137.14447979474      160.8515034      .37136479238711       60.0537782      88.009180141665        0.0000000

            X0002B    -214338.0283098   428661.5879112      -.2139430601987  .42858306316502      91858.506043512
                      -371227.6479073     -120.0011166      -.3713647923871     -119.9462218      -88.00918014166

 X0001C                316.2546590525  418.10096524901      .21463981417901  .42858306316503      -16.78502755426  91841.721015958
                      273.48017801981       40.8515034       -.370962521289      -59.9462218      88.009180141666        0.0000000

            X0002C      -214323.55952   428661.5879112       -.214639814179  .42858306316503      91858.506043512
                      371236.00146705      119.9988834      .37096252128903      120.0537782      -88.00918014166

 X0002C                 -214323.55952   428661.5879112      -.0349886447693  .04040040285252       .2040240688313   .2040240688313
                      371236.00146705      119.9988834      -.0201986952019     -150.0024666      -8659.050417104    -8659.0504171

            TERRA                 0.0              0.0      .03498864476925  .04040040285252                  0.0
                                  0.0              0.0      .02019869520185       29.9975334                  0.0

 X0002A                428661.5878298   428661.5879112      .17392165222E-5  .04040040285252      .20402406883078  .20402406883078
                      -8.353559736785       -0.0011166      .04040040281509       89.9975334      -8659.050417104    -8659.0504171

            TERRA                 0.0              0.0      -.1739216522E-5  .04040040285252                  0.0
                                  0.0              0.0      -.0404004028151      -90.0024666                  0.0

 X0001C                316.2546590525  418.10096524901      -.2577419724E-4  .39405087616E-4      .19409511625E-6  .19409511625E-6
                      273.48017801981       40.8515034      .29806906697E-4      130.8501534      -.0082376525816       -0.0082377

            TERRA                 0.0              0.0      .25774197236E-4  .39405087616E-4                  0.0
                                  0.0              0.0       -.298069067E-4      -49.1498466                  0.0

 X0001A               78.713452070397  418.10096524901      .73922841007E-4  .08078600413911      16.589265069969  .40789865404777
                      -410.6246578146      -79.1484966      -.0807859703177      -89.9475718      3.1642940306362   -17311.7565526

            X0002A     428661.5878298   428661.5879112      -.7392284101E-4  .08078600413911      -16.18136641592
                      -8.353559736785       -0.0011166      .08078597031773       90.0524282      -17314.92084663

 X0001B               -394.9681111229  418.10096524901       -.069999663985  .08078600413911      16.589265069969  .40789865404764
                      137.14447979474      160.8515034      .04032896610064      150.0524282      3.1642940306362   -17311.7565526

            X0002B    -214338.0283098   428661.5879112      .06999966398504  .08078600413911      -16.18136641592
                      -371227.6479073     -120.0011166      -.0403289661006      -29.9475718      -17314.92084663

 X0001C                316.2546590525  418.10096524901      .06992574114403  .08078600413911      16.589265069969  .40789865404759
                      273.48017801981       40.8515034       .0404570042171       30.0524282      3.1642940306362   -17311.7565526

            X0002C      -214323.55952   428661.5879112       -.069925741144  .08078600413911      -16.18136641592
                      371236.00146705      119.9988834      -.0404570042171     -149.9475718      -17314.92084663

 LN1A                 78.713451641926  418.10096524808       .4284701720121  .43609297319234      .19567459752257  .19557714154149
                      -410.6246578957      -79.1484967      .08118123529275       10.7285254      -91.16523651972      -91.1652365

            VFF2A     81.886973831848  441.48834876763      -.8188697368E-7   .4414883489E-6      -.9745598108E-4
                      -433.8277142072      -79.3109189      .43382771437E-6      100.6890810       -.39540569E-13

 LN1B                  -394.968110979  418.10096524808      -.1439300739319  .43609297319234      .19567459752262  .19557714154151
                       137.1444802064      160.8515033      -.4116566713727     -109.2714746      -91.16523651972      -91.1652365

            VFF2B     -416.6493082851  441.48834876763      .41664930867E-6  .44148834907E-6      -.9745598111E-4
                      145.99765752618      160.6890811      -.1459976573E-6      -19.3109189      .6614917867E-13

 LN1C                 316.25465933704  418.10096524808      -.2845400980802  .43609297319234      .19567459752258   .1955771415415
                      273.48017768933       40.8515033      .33047543607999      130.7285254      -91.16523651972      -91.1652365

            VFF2C     334.76233445324  441.48834876764      -.3347623346E-6  .44148834893E-6      -.9745598108E-4
                      287.83005668101       40.6890811      -.2878300567E-6     -139.3109189      -.144704513E-13
     Total network loss  P-loss  by summing injections =   2.757869185752E+05

Output for steady-state phasor switch currents.
      Node-K    Node-M            I-real            I-imag            I-magn          Degrees        Power            Reactive
      LN1A      COMPA         4.79760047E-08   -4.04898846E-07    4.07731250E-07     -83.2426    8.50189034E-05    6.08542758E-06
      LN1B      COMPB        -3.84255319E-07    1.73482596E-07    4.21602136E-07     155.7019    8.77803889E-05    7.91079853E-06
      LN1C      COMPC         3.71645185E-07    2.53107112E-07    4.49648033E-07      34.2566    9.33771497E-05    1.07956440E-05
      VFF2A     RSNNHA        8.18869738E-08   -4.33827715E-07    4.41488349E-07     -79.3109    9.74559811E-05    3.30901673E-14
      VFF2B     RSNNHB       -4.16649309E-07    1.45997657E-07    4.41488349E-07     160.6891    9.74559811E-05   -1.15349921E-13
      VFF2C     RSNNHC        3.34762335E-07    2.87830057E-07    4.41488349E-07      40.6891    9.74559811E-05    3.30798579E-14
      VFF2A     SE2A              Open              Open              Open             Open          Open              Open
      VFF2B     SE2B              Open              Open              Open             Open          Open              Open
      VFF2C     SE2C              Open              Open              Open             Open          Open              Open
      X0001B    XX0003            Open              Open              Open             Open          Open              Open
      X0001C    XX0004            Open              Open              Open             Open          Open              Open
      XX0005    X0002A            Open              Open              Open             Open          Open              Open
      XX0003    X0002B            Open              Open              Open             Open          Open              Open
      XX0004    X0002C            Open              Open              Open             Open          Open              Open
      X0001A    XX0005            Open              Open              Open             Open          Open              Open
      VFUENA    IFUENA        4.28931219E-01    1.21588636E-01    4.45831568E-01      15.8264    9.19329794E+04   -2.60601352E+04
      VFUENB    IFUENB       -1.09166762E-01   -4.32259650E-01    4.45831568E-01    -104.1736    9.19329794E+04   -2.60601352E+04
      VFUENC    IFUENC       -3.19764457E-01    3.10671014E-01    4.45831568E-01     135.8264    9.19329794E+04   -2.60601352E+04
      COMPA     RSNSHA        4.79760047E-08   -4.04898846E-07    4.07731250E-07     -83.2426    8.50189034E-05    6.08542758E-06
      COMPB     RSNSHB       -3.84255319E-07    1.73482596E-07    4.21602136E-07     155.7019    8.77803889E-05    7.91079853E-06
      COMPC     RSNSHC        3.71645185E-07    2.53107112E-07    4.49648033E-07      34.2566    9.33771497E-05    1.07956440E-05

Solution at nodes with known voltage.   Nodes that are shorted together by switches are shown as a group of names, with the printed
result applying to the composite group.   The entry "MVA" is  SQRT( P**2 + Q**2 )  in units of power,  while  "P.F."  is the
associated power factor.
              Node                Source  node  voltage             Injected  source  current              Injected  source  power
              name         Rectangular            Polar          Rectangular            Polar            P  and  Q    MVA and P.F.

               VFUENA
              IFUENA       428660.705       428660.705      .42893121937094  .44583156838083      91932.979446028  95555.237206691
                                  0.0              0.0      .12158863603919       15.8263808      -26060.13522227        0.9620925

               VFUENB
              IFUENB     -214330.3525       428660.705      -.1091667620697  .44583156838118      91932.979446435  95555.237206765
                      -371231.0601341     -120.0000000        -.43225965047     -104.1736192      -26060.13522111        0.9620925

               VFUENC
              IFUENC     -214330.3525       428660.705      -.3197644573077  .44583156838019      91932.979445787  95555.237206554
                      371231.06013415      120.0000000      .31067101443009      135.8263808      -26060.13522262        0.9620925

  +++  Node  "COMPC "  has no connected linear branches.  Add (to ground) the conductance  G = 1.00000000E-18  mhos.
  +++  Node  "COMPB "  has no connected linear branches.  Add (to ground) the conductance  G = 1.00000000E-18  mhos.
  +++  Node  "COMPA "  has no connected linear branches.  Add (to ground) the conductance  G = 1.00000000E-18  mhos.
Card of names for time-step loop output.          |  LN1A  LN1B  LN1C  COMPA COMPB COMPC SB1A  SB1B  SB1C  SE2A  SE2B  SE2C  VFF2A
Card of names for time-step loop output.          |  VFF2B VFF2C IFUENAIFUENBIFUENC
Card of names for time-step loop output.          |-5VFF2A VFF2B VFF2B VFF2C VFF2C VFF2A LN1A  LN1B  LN1B  LN1C  LN1C  LN1A
Card of names for time-step loop output.          |-5SB1A  SB1B  SB1B  SB1C  SB1C  SB1A
Blank card ending requests for output variables.  |BLANK OUTPUT

Column headings for the  55   EMTP output variables follow.  These are divided among the 5 possible classes as follows ....
  First  27     output variables are electric-network voltage differences (upper voltage minus lower voltage);
  Next   6     output variables are branch currents (flowing from the upper node to the lower node);
  Next   22     output variables belong to MODELS (with "MODELS" an internally-added upper name of pair).
   Step      Time      LN1A       LN1B       LN1C       COMPA      COMPB      COMPC      SB1A       SB1B       SB1C       SE2A
 

                       SE2B       SE2C       VFF2A      VFF2B      VFF2C      IFUENA     IFUENB     IFUENC     VFF2A      VFF2B
                                                                                                               VFF2B      VFF2C

                       VFF2C      LN1A       LN1B       LN1C       SB1A       SB1B       SB1C       VFUENA     VFUENB     VFUENC
                       VFF2A      LN1B       LN1C       LN1A       SB1B       SB1C       SB1A       IFUENA     IFUENB     IFUENC

                       COMPA      COMPB      COMPC      MODELS     MODELS     MODELS     MODELS     MODELS     MODELS     MODELS
                       RSNSHA     RSNSHB     RSNSHC     ANVOL      LONG       R0F        R1F        X0F        X1F        RDIVX

                       MODELS     MODELS     MODELS     MODELS     MODELS     MODELS     MODELS     MODELS     MODELS     MODELS
                       RINSER     CLOSE1     RPPOS      RPCERO     LPPOS      LPCERO     CPPOS      CPCERO     XP         CR

                       MODELS     MODELS     MODELS     MODELS     MODELS
                       SIMET      ENC1       ENC2       ENC1AS     ENC2AS
 ***      Phasor I(0) =  4.7976005E-08                     Switch  "LN1A  "  to  "COMPA "  closed in the steady-state.
 ***      Phasor I(0) = -3.8425532E-07                     Switch  "LN1B  "  to  "COMPB "  closed in the steady-state.
 ***      Phasor I(0) =  3.7164519E-07                     Switch  "LN1C  "  to  "COMPC "  closed in the steady-state.
 ***      Phasor I(0) =  8.1886974E-08                     Switch  "VFF2A "  to  "RSNNHA"  closed in the steady-state.
 ***      Phasor I(0) = -4.1664931E-07                     Switch  "VFF2B "  to  "RSNNHB"  closed in the steady-state.
 ***      Phasor I(0) =  3.3476233E-07                     Switch  "VFF2C "  to  "RSNNHC"  closed in the steady-state.
 ***      Phasor I(0) =  4.2893122E-01                     Switch  "VFUENA"  to  "IFUENA"  closed in the steady-state.
 ***      Phasor I(0) = -1.0916676E-01                     Switch  "VFUENB"  to  "IFUENB"  closed in the steady-state.
 ***      Phasor I(0) = -3.1976446E-01                     Switch  "VFUENC"  to  "IFUENC"  closed in the steady-state.
 ***      Phasor I(0) =  4.7976005E-08                     Switch  "COMPA "  to  "RSNSHA"  closed in the steady-state.
 ***      Phasor I(0) = -3.8425532E-07                     Switch  "COMPB "  to  "RSNSHB"  closed in the steady-state.
 ***      Phasor I(0) =  3.7164519E-07                     Switch  "COMPC "  to  "RSNSHC"  closed in the steady-state.
      0       0.0  78.7134516 -394.96811 316.254659 78.7134516 -394.96811 316.254659 428661.588 -214338.03 -214323.56        0.0
                          0.0        0.0 81.8869738 -416.64931 334.762334 428660.705 -214330.35 -214330.35 498.536282 -751.41164
                   252.875361 473.681563 -711.22277 237.541208 642999.616  -14.46879 -642985.15 .428931219 -.10916676 -.31976446
                    .47976E-7 -.38426E-6 .371645E-6        0.0   304.8463    2.97489   3.204915   17.23421    18.5668    .172615
                         400.    .055249    .017828    .294769    .348724    .989109    .010497    .009495   1530.323   30.60646
                          0.0        0.0        0.0        0.0        0.0
    500     .5E-3  141.979069 -411.55894 269.579873 141.979069 -411.55894 269.579873 423385.396 -153626.39   -269759.        0.0
                          0.0        0.0 148.744414 -434.35873 285.614311  423383.18 -153618.26 -269764.92  583.10314 -719.97304
                   136.869897 553.538011 -681.13882 127.600804 577011.788 116132.613  -693144.4 .404648806 -.04020862 -.36444019
                   .141104E-6 -.40573E-6 .293046E-6        0.0   304.8463    2.97489   3.204915   17.23421    18.5668    .172615
                         400.    .055249    .017828    .294769    .348724    .989109    .010497    .009495   1530.323   30.60646
                          0.0        0.0        0.0        0.0        0.0
   1000     .1E-2  201.750858 -418.01692 216.266063 201.750858 -418.01692 216.266063 407683.994 -89131.935 -318552.06        0.0
                          0.0        0.0 211.939274 -441.37279 229.433518 407680.557 -89123.572 -318556.98 653.312067 -670.80631
                    17.494244  619.76778 -634.28299  14.515205 496815.929 229420.124 -726236.05 .370388004  .02974688 -.40013488
                   .209693E-6 -.43154E-6 .221873E-6        0.0   304.8463    2.97489   3.204915   17.23421    18.5668    .172615
                         400.    .055249    .017828    .294769    .348724    .989109    .010497    .009495   1530.323   30.60646
                          0.0        0.0        0.0        0.0        0.0
   1500     .0015  256.553938 -414.18147 157.627528 256.553938 -414.18147 157.627528 381944.068 -22442.759 -359501.31        0.0
                          0.0        0.0  269.91211  -437.5171 167.604986 381939.485 -22434.368 -359505.12 707.429207 -605.12208
                   -102.30712 670.735405   -571.809  -98.92641 404386.827 337058.551 -741445.38 .327002766 .098972039  -.4259748
                   .265557E-6 -.42671E-6 .161148E-6        0.0   304.8463    2.97489   3.204915   17.23421    18.5668    .172615
                         400.    .055249    .017828    .294769    .348724    .989109    .010497    .009495   1530.323   30.60646
                          0.0        0.0        0.0        0.0        0.0
   2000      .002  305.039663 -400.14742 95.1077564 305.039663 -400.14742 95.1077564  346799.42 44799.0285 -391598.45        0.0
                          0.0        0.0 321.244733 -422.89125 101.646516 346793.795 44807.2448 -391601.04 744.135983 -524.53776
                   -219.59822 705.187083 -495.25518 -209.93191 302000.392 436397.477 -738397.87 .275564821 .165760586 -.44132541
                   .323873E-6 -.40418E-6 .944856E-7        0.0   304.8463    2.97489   3.204915   17.23421    18.5668    .172615
                         400.    .055249    .017828    .294769    .348724    .989109    .010497    .009495   1530.323   30.60646
                          0.0        0.0        0.0        0.0        0.0
   2500     .0025  346.012882  -376.2597 30.2468139 346.012882  -376.2597 30.2468139 303115.464 110937.692 -414053.16        0.0
                          0.0        0.0 364.665267 -397.85142 33.1861577 303108.891 110945.554 -414054.45 762.516692 -431.03758
                   -331.47911 722.272578 -406.50651 -315.76607 192177.772 524990.849 -717168.62 .217348586 .228464055 -.44581264
                   .344114E-6 -.39897E-6 .299933E-7        0.0   304.8463    2.97489   3.204915   17.23421    18.5668    .172615
                         400.    .055249    .017828    .294769    .348724    .989109    .010497    .009495   1530.323   30.60646
                          0.0        0.0        0.0        0.0        0.0
   3000      .003  378.469046 -343.10868 -35.360362 378.469046 -343.10868 -35.360362 251967.718 174344.743 -426312.46        0.0
                          0.0        0.0 399.105967  -363.0149 -36.091068 251960.441 174352.016 -426312.46 762.120866 -326.92383
                   -435.19704 721.577729 -307.74832 -413.82941 77622.9745 600657.205 -678280.18 .153772197 .285546115 -.43931831
                   .411929E-6 -.38395E-6 -.35066E-7        0.0   304.8463    2.97489   3.204915   17.23421    18.5668    .172615
                         400.    .055249    .017828    .294769    .348724    .989109    .010497    .009495   1530.323   30.60646
                          0.0        0.0        0.0        0.0        0.0
   3500     .0035  401.604554 -301.50845  -100.0961 401.604554 -301.50845  -100.0961 194615.721 233458.833 -428074.55        0.0
                          0.0        0.0 423.719213 -319.23966 -104.47955 194607.888 233465.353 -428073.24 742.958872 -214.76011
                   -528.19877 703.113004 -201.41235 -501.70066 -38843.112 661533.386 -622690.27 .086407586 .335598009 -.42200559
                   .414877E-6 -.29898E-6 -.10169E-6        0.0   304.8463    2.97489   3.204915   17.23421    18.5668    .172615
                         400.    .055249    .017828    .294769    .348724    .989109    .010497    .009495   1530.323   30.60646
                          0.0        0.0        0.0        0.0        0.0
   4000      .004  414.851059   -252.484 -162.36706 414.851059   -252.484 -162.36706 132471.653 286824.383 -419296.04        0.0
                          0.0        0.0 437.900169 -267.60423 -170.29594 132463.443 286829.997 -419293.44   705.5044 -97.308292
                   -608.19611 667.335056 -90.116935 -577.21812 -154352.73  706120.42 -551767.69 .016917267 .377385403 -.39430267
                   .413529E-6  -.2776E-6 -.16433E-6        0.0   304.8463    2.97489   3.204915   17.23421    18.5668    .172615
                         400.    .055249    .017828    .294769    .348724    .989109    .010497    .009495   1530.323   30.60646
                          0.0        0.0        0.0        0.0        0.0
   4500     .0045    417.8826 -197.24256 -220.64004   417.8826 -197.24256 -220.64004 67065.7312 333127.347 -400193.08        0.0
                          0.0        0.0 441.297276 -209.37885 -231.91842 67057.3081 333131.936 -400189.24 650.676128 22.5395724
                    -673.2157 615.125161 23.3974783 -638.52264 -266061.62 733320.426 -467258.81 -.05299051 .409880775 -.35689026
                    .40956E-6  -.1996E-6 -.23839E-6        0.0   304.8463    2.97489   3.204915   17.23421    18.5668    .172615
                         400.    .055249    .017828    .294769    .348724    .989109    .010497    .009495   1530.323   30.60646
                          0.0        0.0        0.0        0.0        0.0
   5000      .005  410.624885 -137.14457 -273.48032 410.624885 -137.14457 -273.48032 8.35301077 371227.648   -371236.        0.0
                          0.0        0.0 433.827958 -145.99776  -287.8302 -.45661E-7  371231.06 -371231.06 579.825721 141.832433
                   -721.65815 547.769454 136.335746  -684.1052  -371219.3 742463.649 -371244.35 -.12158886  .43228119 -.31069233
                   .439381E-6 -.13479E-6  -.3046E-6        0.0   304.8463    2.97489   3.204915   17.23421    18.5668    .172615
                         400.    .055249    .017828    .294769    .348724    .989109    .010497    .009495   1530.323   30.60646
                          0.0        0.0        0.0        0.0        0.0
   5500     .0055  393.255967 -73.669496 -319.58647 393.255967 -73.669496 -319.58647 -67049.203 400187.078 -333137.87        0.0
                          0.0        0.0 415.675869 -79.021466  -336.6544 -67057.308 400189.244 -333131.94 494.697335 257.632937
                   -752.33027 466.925464 245.916975 -712.84244 -467236.28 733324.953 -266088.67 -.18719664  .44403909 -.25684245
                   .385367E-6 -.80394E-7 -.33338E-6        0.0   304.8463    2.97489   3.204915   17.23421    18.5668    .172615
                         400.    .055249    .017828    .294769    .348724    .989109    .010497    .009495   1530.323   30.60646
                          0.0        0.0        0.0        0.0        0.0
   6000      .006   366.20348  -8.380287 -357.82319  366.20348  -8.380287 -357.82319 -132455.77 419292.567  -286836.8        0.0
                          0.0        0.0 387.289492 -10.099927 -377.18957 -132463.44  419293.44   -286830. 397.389418 367.089639
                   -764.47906 374.583767 349.442906 -724.02667 -551748.34 706129.363 -154381.03 -.24819369 .444862614 -.19666893
                   .404526E-6 -.88334E-8 -.37078E-6        0.0   304.8463    2.97489   3.204915   17.23421    18.5668    .172615
                         400.    .055249    .017828    .294769    .348724    .989109    .010497    .009495   1530.323   30.60646
                          0.0        0.0        0.0        0.0        0.0
   6500     .0065  330.133036 57.1156916 -387.24873 330.133036 57.1156916 -387.24873 -194600.85 428073.687 -233472.84        0.0
                          0.0        0.0 349.367338 59.0700186 -408.43736 -194607.89  428073.24 -233465.35 290.297319 467.507375
                   -757.80469 273.017344 444.364419 -717.38176 -622674.54 661546.525 -38871.988 -.30308215 .434733524 -.13165138
                   .327003E-6 .622878E-7 -.39639E-6        0.0   304.8463    2.97489   3.204915   17.23421    18.5668    .172615
                         400.    .055249    .017828    .294769    .348724    .989109    .010497    .009495   1530.323   30.60646
                          0.0        0.0        0.0        0.0        0.0
   7000      .007    285.9346 121.204792 -407.13939   285.9346 121.204792 -407.13939 -251954.21  426314.21   -174360.        0.0
                          0.0        0.0 302.841794 126.785865 -429.62766 -251960.44 426312.457 -174352.02 176.055929 556.413524
                   -732.46945 164.729808 528.344183 -693.07399 -678268.42 600674.215 77594.2002 -.35049974 .413895864 -.06339612
                   .317733E-6 .120101E-6 -.40943E-6        0.0   304.8463    2.97489   3.204915   17.23421    18.5668    .172615
                         400.    .055249    .017828    .294769    .348724    .989109    .010497    .009495   1530.323   30.60646
                          0.0        0.0        0.0        0.0        0.0
   7500     .0075  234.696643  182.30886  -417.0055 234.696643  182.30886  -417.0055 -303103.62 414057.466 -110953.85        0.0
                          0.0        0.0 248.858738 191.380105 -440.23884 -303108.89 414054.446 -110945.55 57.4786327 631.618949
                   -689.09758 52.3877834 599.314363 -651.70215 -717161.08 525011.313 192149.772 -.38929306 .382869804 .006423252
                   .236355E-6  .17955E-6 -.44433E-6        0.0   304.8463    2.97489   3.204915   17.23421    18.5668    .172615
                         400.    .055249    .017828    .294769    .348724    .989109    .010497    .009495   1530.323   30.60646
                          0.0        0.0        0.0        0.0        0.0
   8000      .008  177.678479 238.924474 -416.60295 177.678479 238.924474 -416.60295  -346789.6 391605.245 -44815.644        0.0
                          0.0        0.0 188.748521 251.261638 -440.01016  -346793.8  391601.04 -44807.245 -62.513117 691.271797
                   -628.75868 -61.245996 655.527427 -594.28143 -738394.85  436420.89 301973.957 -.41850059 .342416175 .076084411
                   .190258E-6 .248991E-6 -.43926E-6        0.0   304.8463    2.97489   3.204915   17.23421    18.5668    .172615
                         400.    .055249    .017828    .294769    .348724    .989109    .010497    .009495   1530.323   30.60646
                          0.0        0.0        0.0        0.0        0.0
   8500     .0085  116.285244 289.657006 -405.94225 116.285244 289.657006 -405.94225  -381936.5 359510.418 22426.0828        0.0
                          0.0        0.0 123.992171 304.955538 -428.94771 -381939.48 359505.117 22434.3679 -180.96337 733.903247
                   -552.93988 -173.37176 695.599256 -522.22749 -741446.92 337084.336 404362.584 -.43740222 .293530604 .143871614
                   .128835E-6 .320338E-6 -.43493E-6        0.0   304.8463    2.97489   3.204915   17.23421    18.5668    .172615
                         400.    .055249    .017828    .294769    .348724    .989109    .010497    .009495   1530.323   30.60646
                          0.0        0.0        0.0        0.0        0.0
   9000      .009  52.0285901 333.257254 -385.28584 52.0285901 333.257254 -385.28584  -407678.8 318563.224  89115.577        0.0
                          0.0        0.0 56.1811085 351.141222 -407.32233 -407680.56 318556.985  89123.572 -294.96011 758.463553
                   -463.50344 -281.22866 718.543097 -437.31443 -726242.02 229447.647 496794.378 -.44553278  .23741696 .208115818
                   .530144E-7 .371761E-6 -.38923E-6        0.0   304.8463    2.97489   3.204915   17.23421    18.5668    .172615
                         400.    .055249    .017828    .294769    .348724    .989109    .010497    .009495   1530.323   30.60646
                          0.0        0.0        0.0        0.0        0.0
   9500     .0095  -13.508045  368.65104 -355.14299 -13.508045  368.65104 -355.14299 -423382.74  269771.97 153610.775        0.0
                          0.0        0.0 -13.013415 388.680707 -375.66729 -423383.18 269764.922 153618.258 -401.69412 764.347998
                   -362.65388 -382.15909 723.794035 -341.63495 -693154.71 116161.195 576993.519 -.44269463 .175458206 .267236429
                   -.14651E-7   .4004E-6 -.39817E-6        0.0   304.8463    2.97489   3.204915   17.23421    18.5668    .172615
                         400.    .055249    .017828    .294769    .348724    .989109    .010497    .009495   1530.323   30.60646
                          0.0        0.0        0.0        0.0        0.0
  10000       .01  -78.713264 394.968006 -316.25474 -78.713264 394.968006 -316.25474 -428661.59 214338.028 214323.558        0.0
                          0.0        0.0 -81.886919 416.649273 -334.76235 -428660.71 214330.353 214330.352 -498.53619 751.411627
                   -252.87544 -473.68127 711.222748 -237.54148 -642999.61 14.4696005 642985.144 -.42895642 .109179363 .319777058
                   -.76018E-7 .390502E-6  -.3571E-6        0.0   304.8463    2.97489   3.204915   17.23421    18.5668    .172615
                         400.    .055249    .017828    .294769    .348724    .989109    .010497    .009495   1530.323   30.60646
                          0.0        0.0        0.0        0.0        0.0
  10500     .0105  -141.98181  411.56032 -269.57851 -141.98181  411.56032 -269.57851 -423385.36 153626.374 269758.986        0.0
                          0.0        0.0 -148.74411 434.358565 -285.61446 -423383.18 153618.258 269764.922 -583.10267 719.973025
                   -136.87035 -553.54213 681.138826 -127.59669 -577011.73 -116132.61 693144.346 -.40465198 .040210215 .364441768
                   -.15198E-6 .447299E-6 -.29529E-6        0.0   304.8463    2.97489   3.204915   17.23421    18.5668    .172615
                         400.    .055249    .017828    .294769    .348724    .989109    .010497    .009495   1530.323   30.60646
                          0.0        0.0        0.0        0.0        0.0
  11000      .011  -201.75068 418.016829 -216.26615 -201.75068 418.016829 -216.26615 -407683.96 89131.9203 318552.044        0.0
                          0.0        0.0 -211.93913 441.372707 -229.43357 -407680.56  89123.572 318556.985 -653.31184 670.806281
                   -17.494441 -619.76751 634.282974 -14.515461 -496815.88 -229420.12 726236.009 -.37038984 -.02974595 .400135794
                    -.2093E-6 .455169E-6 -.21743E-6        0.0   304.8463    2.97489   3.204915   17.23421    18.5668    .172615
                         400.    .055249    .017828    .294769    .348724    .989109    .010497    .009495   1530.323   30.60646
                          0.0        0.0        0.0        0.0        0.0
  11500     .0115  -256.55416 414.181571 -157.62741 -256.55416 414.181571 -157.62741 -381944.06 22442.7571 359501.308        0.0
                          0.0        0.0 -269.91902 437.520551 -167.60153 -381939.48 22434.3679 359505.117 -707.43957 605.122079
                   102.317494 -670.73573 571.808985 98.9267431 -404386.82 -337058.55 741445.373 -.32700247 -.09897219 .425974654
                   -.28717E-6 .436809E-6 -.17807E-6        0.0   304.8463    2.97489   3.204915   17.23421    18.5668    .172615
                         400.    .055249    .017828    .294769    .348724    .989109    .010497    .009495   1530.323   30.60646
                          0.0        0.0        0.0        0.0        0.0
  12000      .012  -305.03965 400.147397  -95.10775 -305.03965 400.147397  -95.10775 -346799.42 -44799.026 391598.451        0.0
                          0.0        0.0 -321.24533 422.891542 -101.64621  -346793.8 -44807.245  391601.04 -744.13687 524.537757
                   219.599113 -705.18704 495.255148 209.931896  -302000.4 -436397.48 738397.876 -.27556519  -.1657604 .441325593
                   -.30956E-6  .39774E-6 -.10242E-6        0.0   304.8463    2.97489   3.204915   17.23421    18.5668    .172615
                         400.    .055249    .017828    .294769    .348724    .989109    .010497    .009495   1530.323   30.60646
                          0.0        0.0        0.0        0.0        0.0
  12500     .0125  -346.01698 376.261728 -30.244747 -346.01698 376.261728 -30.244747 -303115.42 -110937.71 414053.136        0.0
                          0.0        0.0 -364.66607 397.851821  -33.18575 -303108.89 -110945.55 414054.446 -762.51789 431.037571
                    331.48032 -722.27871 406.506475 315.772235 -192177.71 -524990.85 717168.558 -.21734129 -.22846769  .44580898
                   -.34283E-6 .390424E-6 -.33391E-7        0.0   304.8463    2.97489   3.204915   17.23421    18.5668    .172615
                         400.    .055249    .017828    .294769    .348724    .989109    .010497    .009495   1530.323   30.60646
                          0.0        0.0        0.0        0.0        0.0
  13000      .013   -378.4689 343.108606 35.3602942  -378.4689 343.108606 35.3602942 -251967.73 -174344.74 426312.466        0.0
                          0.0        0.0 -399.10599 363.014896 36.0910923 -251960.44 -174352.02 426312.457 -762.12088 326.923804
                    435.19708 -721.57751 307.748312 413.829195 -77622.988  -600657.2 678280.192 -.15376822  -.2855481 .439316326
                    -.4014E-6 .351471E-6  .35725E-7        0.0   304.8463    2.97489   3.204915   17.23421    18.5668    .172615
                         400.    .055249    .017828    .294769    .348724    .989109    .010497    .009495   1530.323   30.60646
                          0.0        0.0        0.0        0.0        0.0
  13500     .0135  -401.60514 301.508735 100.096409 -401.60514 301.508735 100.096409 -194615.73 -233458.83  428074.56        0.0
                          0.0        0.0  -423.7194 319.239744 104.479658 -194607.89 -233465.35  428073.24 -742.95915 214.760086
                   528.199059 -703.11388 201.412326 501.701552 38843.0926 -661533.39 622690.294   -.086405  -.3355993 .422004305
                   -.42139E-6 .304066E-6 .103122E-6        0.0   304.8463    2.97489   3.204915   17.23421    18.5668    .172615
                         400.    .055249    .017828    .294769    .348724    .989109    .010497    .009495   1530.323   30.60646
                          0.0        0.0        0.0        0.0        0.0
  14000      .014  -414.85098 252.483943 162.367034 -414.85098 252.483943 162.367034 -132471.66 -286824.38 419296.043        0.0
                          0.0        0.0 -437.89923 267.603757 170.295468 -132463.44   -286830.  419293.44 -705.50298 97.3082889
                   608.194693 -667.33492 90.1169087 577.218012 154352.713 -706120.42 551767.708 -.01691659 -.37738575 .394302333
                   -.44951E-6 .269013E-6 .180487E-6        0.0   304.8463    2.97489   3.204915   17.23421    18.5668    .172615
                         400.    .055249    .017828    .294769    .348724    .989109    .010497    .009495   1530.323   30.60646
                          0.0        0.0        0.0        0.0        0.0
  14500     .0145  -417.88271 197.242609 220.640104 -417.88271 197.242609 220.640104 -67065.696 -333127.36 400193.061        0.0
                          0.0        0.0 -441.29708 209.378747 231.918338 -67057.308 -333131.94 400189.244 -650.67583 -22.539591
                   673.215422 -615.12532 -23.397495 638.522817 266061.668 -733320.43 467258.758 .052988212 -.40987962 .356891405
                   -.42898E-6 .203752E-6  .22522E-6        0.0   304.8463    2.97489   3.204915   17.23421    18.5668    .172615
                         400.    .055249    .017828    .294769    .348724    .989109    .010497    .009495   1530.323   30.60646
                          0.0        0.0        0.0        0.0        0.0
  % % % % % %   Suspended simulation;  plot data space exhausted;  SPY SPACE is required.   LIMBUF =  840000.
  % % % % % %   Suspended simulation;  plot data space exhausted;  SPY SPACE is required.   LIMBUF =  840000.
  +++  Time-sharing disabled.   Send  user-keyed interrupt to silence alarm.
   Current values.  INDBUF  INDBEG  LIMBUF  MFLUSH  NUMDCD  KCARD1  KCARD2
                    839994      50  840000    1000     230       1     231
Plot timespan now in memory (in sec) = 0.00000000E+00   1.49990000E-02
   ++++  Begin plot-data copy from memory to disk.   MFLUSH, INDBUF, N4, Tbeg,  Tend = 1001  839994       1  -1.00000E+00
1.00000E+19
  15000      .015  -410.62487 137.144562 273.480309 -410.62487 137.144562 273.480309 -8.3657674 -371227.64 371236.008        0.0
                          0.0        0.0 -433.82746 145.997502 287.829961 -.61533E-6 -371231.06  371231.06 -579.82496 -141.83246
                   721.657423 -547.76943 -136.33575  684.10518 371219.276 -742463.65 371244.373 .121589398 -.43228146 .310692065
                    -.4427E-6 .138333E-6  .30431E-6        0.0   304.8463    2.97489   3.204915   17.23421    18.5668    .172615
                         400.    .055249    .017828    .294769    .348724    .989109    .010497    .009495   1530.323   30.60646
                          0.0        0.0        0.0        0.0        0.0
  15500     .0155  -393.25583 73.6694173 319.586409 -393.25583 73.6694173 319.586409 67049.2017 -400187.08 333137.876        0.0
                          0.0        0.0 -415.67653 79.0217888  336.65474 67057.3081 -400189.24 333131.936 -494.69832 -257.63295
                   752.331269 -466.92524 -245.91699 712.842234 467236.279 -733324.95 266088.674 .187195529 -.44403854 .256843008
                   -.42354E-6 .714989E-7  .35204E-6        0.0   304.8463    2.97489   3.204915   17.23421    18.5668    .172615
                         400.    .055249    .017828    .294769    .348724    .989109    .010497    .009495   1530.323   30.60646
                          0.0        0.0        0.0        0.0        0.0
  16000      .016  -366.20322 8.38014547 357.823074 -366.20322 8.38014547 357.823074 132455.772 -419292.57 286836.796        0.0
                          0.0        0.0 -387.29068 10.1005206 377.190159 132463.443 -419293.44 286829.997  -397.3912 -367.08964
                   764.480839 -374.58336 -349.44293 724.026293 551748.339 -706129.36 154381.024 .248192684 -.44486211 .196669429
                   -.37716E-6 .928395E-8 .385655E-6        0.0   304.8463    2.97489   3.204915   17.23421    18.5668    .172615
                         400.    .055249    .017828    .294769    .348724    .989109    .010497    .009495   1530.323   30.60646
                          0.0        0.0        0.0        0.0        0.0
  16500     .0165  -330.13396 -57.115235 387.249199 -330.13396 -57.115235 387.249199 194600.846 -428073.69 233472.839        0.0
                          0.0        0.0 -349.36714 -59.070123 408.437268 194607.888 -428073.24 233465.353 -290.29702 -467.50739
                   757.804413 -273.01873 -444.36443 717.383162 622674.531 -661546.52 38871.9936 .303077851 -.43473138 .131653526
                   -.35841E-6 -.59991E-7 .382919E-6        0.0   304.8463    2.97489   3.204915   17.23421    18.5668    .172615
                         400.    .055249    .017828    .294769    .348724    .989109    .010497    .009495   1530.323   30.60646
                          0.0        0.0        0.0        0.0        0.0
  17000      .017   -285.9365 -121.20384 407.140345  -285.9365 -121.20384 407.140345 251954.204 -426314.21 174360.006        0.0
                          0.0        0.0 -302.84197 -126.78579 429.627757 251960.441 -426312.46 174352.016 -176.05618 -556.41354
                   732.469727 -164.73266 -528.34419  693.07685 678268.413 -600674.21 -77594.198 .350502697 -.41389734 .063394644
                   -.30904E-6 -.12499E-6 .434025E-6        0.0   304.8463    2.97489   3.204915   17.23421    18.5668    .172615
                         400.    .055249    .017828    .294769    .348724    .989109    .010497    .009495   1530.323   30.60646
                          0.0        0.0        0.0        0.0        0.0
  17500     .0175  -234.69619  -182.3091 417.005281 -234.69619  -182.3091 417.005281 303103.612 -414057.46  110953.85        0.0
                          0.0        0.0  -248.8596 -191.37968 440.239282 303108.891 -414054.45 110945.554 -57.479919 -631.61896
                   689.098883  -52.38709 -599.31438 651.701466 717161.074 -525011.31 -192149.76 .389293005 -.38286978 -.00642322
                   -.23696E-6 -.17794E-6 .414904E-6        0.0   304.8463    2.97489   3.204915   17.23421    18.5668    .172615
                         400.    .055249    .017828    .294769    .348724    .989109    .010497    .009495   1530.323   30.60646
                          0.0        0.0        0.0        0.0        0.0
  18000      .018  -177.67882 -238.92432 416.603132 -177.67882 -238.92432 416.603132 346789.599 -391605.24  44815.645        0.0
                          0.0        0.0 -188.75038 -251.26072  440.01109 346793.795 -391601.04 44807.2448 62.5103402 -691.27181
                   628.761465 61.2454999 -655.52745 594.281948 738394.844 -436420.89 -301973.95 .418500642  -.3424162 -.07608444
                   -.17402E-6 -.25693E-6 .459375E-6        0.0   304.8463    2.97489   3.204915   17.23421    18.5668    .172615
                         400.    .055249    .017828    .294769    .348724    .989109    .010497    .009495   1530.323   30.60646
                          0.0        0.0        0.0        0.0        0.0
  18500     .0185  -116.28547  -289.6569 405.942371 -116.28547  -289.6569 405.942371 381936.476 -359510.41  -22426.07        0.0
                          0.0        0.0 -123.99136 -304.95595 428.947309 381939.485 -359505.12 -22434.368  180.96459 -733.90326
                   552.938668 173.371425 -695.59927 522.227843 741446.881 -337084.34 -404362.55 .437402469 -.29353074 -.14387173
                   -.12255E-6  -.3193E-6 .427593E-6        0.0   304.8463    2.97489   3.204915   17.23421    18.5668    .172615
                         400.    .055249    .017828    .294769    .348724    .989109    .010497    .009495   1530.323   30.60646
                          0.0        0.0        0.0        0.0        0.0
  19000      .019  -52.029108   -333.257 385.286109 -52.029108   -333.257 385.286109 407678.825 -318563.24 -89115.589        0.0
                          0.0        0.0 -56.181408 -351.14108 407.322491 407680.557 -318556.98 -89123.572 294.959675 -758.46357
                   463.503898 281.227893 -718.54311 437.315216  726242.06 -229447.65 -496794.41 .445534391 -.23741776 -.20811663
                   -.57292E-7 -.37005E-6 .398926E-6        0.0   304.8463    2.97489   3.204915   17.23421    18.5668    .172615
                         400.    .055249    .017828    .294769    .348724    .989109    .010497    .009495   1530.323   30.60646
                          0.0        0.0        0.0        0.0        0.0
  19500     .0195  13.5087757 -368.65141 355.142633 13.5087757 -368.65141 355.142633 423382.739 -269771.97 -153610.77        0.0
                          0.0        0.0 13.0132254 -388.68062 375.667391  423383.18 -269764.92 -153618.26 401.693841 -764.34801
                   362.654165 382.160185 -723.79404 341.633857 693154.707  -116161.2 -576993.51  .44269495 -.17545837 -.26723658
                   .133822E-7 -.38903E-6 .350788E-6        0.0   304.8463    2.97489   3.204915   17.23421    18.5668    .172615
                         400.    .055249    .017828    .294769    .348724    .989109    .010497    .009495   1530.323   30.60646
                          0.0        0.0        0.0        0.0        0.0
  20000       .02  78.7131345 -394.96795 316.254816 78.7131345 -394.96795 316.254816 428661.588 -214338.03 -214323.56        0.0
                          0.0        0.0   81.88837    -416.65 334.761634 428660.705 -214330.35 -214330.35 498.538374 -751.41164
                   252.873264 473.681085 -711.22277 237.541682 642999.616  -14.46959 -642985.15 .428956102  -.1091792  -.3197769
                   .850566E-7  -.3952E-6 .352797E-6        0.0   304.8463    2.97489   3.204915   17.23421    18.5668    .172615
                         400.    .055249    .017828    .294769    .348724    .989109    .010497    .009495   1530.323   30.60646
                          0.0        0.0        0.0        0.0        0.0
  20500     .0205  141.980273 -411.55955 269.579279 141.980273 -411.55955 269.579279 423385.358 -153626.37 -269758.98        0.0
                          0.0        0.0 148.744366  -434.3587 285.614331  423383.18 -153618.26 -269764.92 583.103063 -719.97303
                   136.869965 553.539826 -681.13883 127.599006  577011.73 116132.612 -693144.34 .404654465 -.04021146 -.36444301
                   .147797E-6 -.43126E-6 .255037E-6        0.0   304.8463    2.97489   3.204915   17.23421    18.5668    .172615
                         400.    .055249    .017828    .294769    .348724    .989109    .010497    .009495   1530.323   30.60646
                          0.0        0.0        0.0        0.0        0.0
  21000      .021  201.753729 -418.01835 216.264624 201.753729 -418.01835 216.264624 407683.981 -89131.929 -318552.05        0.0
                          0.0        0.0 211.939246 -441.37277 229.433527 407680.557 -89123.572 -318556.98 653.312019  -670.8063
                   17.4942804 619.772083 -634.28298 14.5108944  496815.91 229420.124 -726236.03 .370387951 .029746902 -.40013485
                   .207948E-6 -.42783E-6 .219879E-6        0.0   304.8463    2.97489   3.204915   17.23421    18.5668    .172615
[...]
                         400.    .055249    .017828    .294769    .348724    .989109    .010497    .009495   1530.323   30.60646
                          0.0        0.0        0.0        0.0        0.0
 113000      .113  -269585.33 -138564.88  408150.21 -269585.33 -138564.88  408150.21 -269585.33 -138564.88  408150.21        0.0
                          0.0        0.0 -258590.38 -163897.84  422488.22 -251960.44 -174352.02 426312.457 -94692.549 -586386.06
                   681078.605 -131020.45 -546715.09 677735.539 -131020.45 -546715.09 677735.538 194.648866 -82.196441 -112.45242
                   -.29435E-3 -.16426E-3 .429481E-3        0.0   304.8463    2.97489   3.204915   17.23421    18.5668    .172615
                         400.    .055249    .017828    .294769    .348724    .989109    .010497    .009495   1530.323   30.60646
                          0.0        0.0        0.0        0.0        0.0
 113500     .1135  -202564.21 -227894.85 430459.054 -202564.21 -227894.85 430459.054 -202564.21 -227894.85 430459.054        0.0
                          0.0        0.0 -229380.79 -180262.01 409642.804 -194607.89 -233465.35  428073.24 -49118.782 -589904.82
                   639023.598  25330.638  -658353.9 633023.262 25330.6391  -658353.9 633023.261 286.682016 -236.33933 -50.342688
                   -.23942E-3 -.24064E-3 .480026E-3        0.0   304.8463    2.97489   3.204915   17.23421    18.5668    .172615
                         400.    .055249    .017828    .294769    .348724    .989109    .010497    .009495   1530.323   30.60646
                          0.0        0.0        0.0        0.0        0.0
 114000      .114  -142205.53 -274588.14 416793.666 -142205.53 -274588.14 416793.666 -142205.52 -274588.14 416793.666        0.0
                          0.0        0.0 -219131.72 -146208.06 365339.783 -132463.44   -286830.  419293.44 -72923.657 -511547.85
                   584471.503 132382.615 -691381.81 558999.191 132382.617 -691381.81  558999.19 380.010759 -370.19407 -9.8166882
                   -.15584E-3 -.32403E-3  .45073E-3        0.0   304.8463    2.97489   3.204915   17.23421    18.5668    .172615
                         400.    .055249    .017828    .294769    .348724    .989109    .010497    .009495   1530.323   30.60646
                          0.0        0.0        0.0        0.0        0.0
 114500     .1145  -82945.606 -321053.56  403999.17 -82945.606 -321053.56  403999.17 -82945.606 -321053.56  403999.17        0.0
                          0.0        0.0 -118000.89  -296899.4  414900.29 -67057.308 -333131.94 400189.244 178898.519 -711799.69
                   532901.175 238107.957 -725052.73 486944.776 238107.959 -725052.73 486944.775  455.63536 -428.67223 -26.963127
                   -.96974E-4 -.32155E-3 .447601E-3        0.0   304.8463    2.97489   3.204915   17.23421    18.5668    .172615
                         400.    .055249    .017828    .294769    .348724    .989109    .010497    .009495   1530.323   30.60646
                          0.0        0.0        0.0        0.0        0.0
 115000      .115  -23072.507 -348003.62  371076.13 -23072.507 -348003.62  371076.13 -23072.505 -348003.62  371076.13        0.0
                          0.0        0.0 -31128.312 -388990.38 420118.695 .127058E-4 -371231.06  371231.06 357862.072 -809109.08
                   451247.007 324931.117 -719079.75 394148.637 324931.119 -719079.75 394148.636 624.398975 -643.00063 18.6016595
                   -.22991E-4 -.37318E-3 .410706E-3        0.0   304.8463    2.97489   3.204915   17.23421    18.5668    .172615
                         400.    .055249    .017828    .294769    .348724    .989109    .010497    .009495   1530.323   30.60646
                          0.0        0.0        0.0        0.0        0.0
 115500     .1155  70182.7938 -428202.86 358020.069 70182.7938 -428202.86 358020.069 70182.7949 -428202.86 358020.068        0.0
                          0.0        0.0 54324.9401 -449736.76 395411.817 67057.3081 -400189.24 333131.936 504061.697 -845148.57
                   341086.877 498385.656 -786222.93 287837.275 498385.658 -786222.93 287837.273  591.99092 -412.90795 -179.08297
                   .854047E-4 -.47803E-3 .407219E-3        0.0   304.8463    2.97489   3.204915   17.23421    18.5668    .172615
                         400.    .055249    .017828    .294769    .348724    .989109    .010497    .009495   1530.323   30.60646
                          0.0        0.0        0.0        0.0        0.0
 116000      .116  142091.716 -466558.62 324466.903 142091.716 -466558.62 324466.903 142091.717 -466558.62 324466.902        0.0
                          0.0        0.0  168074.39  -554330.1 386255.714 132463.443 -419293.44 286829.997 722404.494 -940585.82
                   218181.325 608650.334 -791025.52 182375.187 608650.336 -791025.52 182375.185 560.251963 -243.47387 -316.77809
                   .148438E-3 -.52015E-3 .371754E-3        0.0   304.8463    2.97489   3.204915   17.23421    18.5668    .172615
                         400.    .055249    .017828    .294769    .348724    .989109    .010497    .009495   1530.323   30.60646
                          0.0        0.0        0.0        0.0        0.0
 116500     .1165  200407.958 -449991.01 249583.048 200407.958 -449991.01 249583.048 200407.959 -449991.01 249583.047        0.0
                          0.0        0.0 259943.624 -574690.45 314746.825 194607.888 -428073.24 233465.353 834634.073 -889437.27
                   54803.2009 650398.964 -699574.05 49175.0907 650398.965 -699574.05 49175.0889 473.186388 -41.522437 -431.66395
                   .215326E-3 -.51271E-3 .297338E-3        0.0   304.8463    2.97489   3.204915   17.23421    18.5668    .172615
                         400.    .055249    .017828    .294769    .348724    .989109    .010497    .009495   1530.323   30.60646
                          0.0        0.0        0.0        0.0        0.0
 117000      .117  276165.751 -483834.21 207668.459 276165.751 -483834.21 207668.459 276165.752 -483834.21 207668.458        0.0
                          0.0        0.0 315434.885 -547788.07 232353.183 251960.441 -426312.46 174352.016 863222.953 -780141.25
                   -83081.701 759999.961 -691502.67 -68497.292 759999.961 -691502.67 -68497.294 358.941352 204.202804 -563.14416
                   .341515E-3 -.53328E-3  .22088E-3        0.0   304.8463    2.97489   3.204915   17.23421    18.5668    .172615
                         400.    .055249    .017828    .294769    .348724    .989109    .010497    .009495   1530.323   30.60646
                          0.0        0.0        0.0        0.0        0.0
 117500     .1175  309249.865 -414521.77  105271.91 309249.865 -414521.77  105271.91 309249.865 -414521.77 105271.908        0.0
                          0.0        0.0 347497.607 -456070.82 108573.215 303108.891 -414054.45 110945.554 803568.429 -564644.04
                   -238924.39 723771.639 -519793.68 -203977.95 723771.638 -519793.68 -203977.96 146.025437 541.983088 -688.00852
                   .347542E-3 -.43501E-3 .116579E-3        0.0   304.8463    2.97489   3.204915   17.23421    18.5668    .172615
                         400.    .055249    .017828    .294769    .348724    .989109    .010497    .009495   1530.323   30.60646
                          0.0        0.0        0.0        0.0        0.0
 118000      .118  351535.603 -395607.57  44071.967 351535.603 -395607.57  44071.967 351535.603 -395607.57 44071.9659        0.0
                          0.0        0.0 384137.035 -412900.88 28763.8458 346793.795 -391601.04 44807.2447 797037.916 -441664.73
                   -355373.19 747143.172 -439679.54 -307463.64 747143.172 -439679.53 -307463.64  144.04036 394.415756 -538.45612
                    .39319E-3  -.4303E-3 .516847E-4        0.0   304.8463    2.97489   3.204915   17.23421    18.5668    .172615
                         400.    .055249    .017828    .294769    .348724    .989109    .010497    .009495   1530.323   30.60646
                          0.0        0.0        0.0        0.0        0.0
 118500     .1185  380120.784 -344364.95 -35755.834 380120.784 -344364.95 -35755.834 380120.784 -344364.95 -35755.834        0.0
                          0.0        0.0 362428.468 -259680.06 -102748.41 381939.485 -359505.12 -22434.368 622108.527 -156931.65
                   -465176.88 724485.734 -308609.12 -415876.62 724485.734 -308609.12 -415876.62 116.282612 309.266743 -425.54935
                    .41086E-3 -.39221E-3 -.40445E-4        0.0   304.8463    2.97489   3.204915   17.23421    18.5668    .172615
                         400.    .055249    .017828    .294769    .348724    .989109    .010497    .009495   1530.323   30.60646
                          0.0        0.0        0.0        0.0        0.0
 119000      .119  410440.248 -319040.06 -91400.187 410440.248 -319040.06 -91400.187 410440.248 -319040.06 -91400.188        0.0
                          0.0        0.0 390516.196 -245854.04 -144662.15 407680.557 -318556.98 -89123.572  636370.24 -101191.89
                   -535178.35 729480.309 -227639.87 -501840.43 729480.309 -227639.87 -501840.44 87.6463461 299.448339 -387.09469
                   .441643E-3 -.33366E-3   -.108E-3        0.0   304.8463    2.97489   3.204915   17.23421    18.5668    .172615
                         400.    .055249    .017828    .294769    .348724    .989109    .010497    .009495   1530.323   30.60646
                          0.0        0.0        0.0        0.0        0.0
 119500     .1195  407955.289 -234582.86 -173372.43 407955.289 -234582.86 -173372.43  407955.29 -234582.86 -173372.43        0.0
                          0.0        0.0 411798.304 -227679.32 -184118.98  423383.18 -269764.92 -153618.26 639477.628 -43560.345
                   -595917.28 642538.147 -61210.426 -581327.72 642538.147 -61210.425 -581327.72 119.220295 138.995821 -258.21612
                    .43306E-3 -.27619E-3 -.18603E-3        0.0   304.8463    2.97489   3.204915   17.23421    18.5668    .172615
                         400.    .055249    .017828    .294769    .348724    .989109    .010497    .009495   1530.323   30.60646
                          0.0        0.0        0.0        0.0        0.0
  % % % % % %   Suspended simulation;  plot data space exhausted;  SPY SPACE is required.   LIMBUF =  840000.
  % % % % % %   Suspended simulation;  plot data space exhausted;  SPY SPACE is required.   LIMBUF =  840000.
  +++  Time-sharing disabled.   Send  user-keyed interrupt to silence alarm.
   Current values.  INDBUF  INDBEG  LIMBUF  MFLUSH  NUMDCD  KCARD1  KCARD2
                    839994      50  840000    1007     230       1     231
Plot timespan now in memory (in sec) = 1.04985997E-01   1.19985000E-01
   ++++  Begin plot-data copy from memory to disk.   MFLUSH, INDBUF, N4, Tbeg,  Tend = 1008  839994       1  -1.00000E+00
1.00000E+19
 120000       .12  437343.187 -231919.41 -205423.77 437343.187 -231919.41 -205423.77 437343.187 -231919.41 -205423.77        0.0
                          0.0        0.0 435463.862 -224208.14 -211255.72 428660.705 -214330.35 -214330.35 659672.002 -12952.419
                   -646719.58 669262.601 -26495.642 -642766.96 669262.601 -26495.641 -642766.96 160.152612  38.015815 -198.16843
                    .46847E-3  -.2536E-3 -.21487E-3        0.0   304.8463    2.97489   3.204915   17.23421    18.5668    .172615
                         400.    .055249    .017828    .294769    .348724    .989109    .010497    .009495   1530.323   30.60646
                          0.0        0.0        0.0        0.0        0.0

Extrema of output variables follow.   Order and column positioning are the same as for the preceding time-step loop output.
Variable maxima :  437343.187 501089.017 480460.654 437343.187 501089.017 480460.654 437343.187 501089.018 480460.655        0.0
                          0.0        0.0 474873.422 690825.005 588966.306 428660.705 428660.703 428660.703 .1122419E7 .1159222E7
                   896164.085 847792.667 951039.447 798877.273 847792.666 951039.448 798877.273 732.994865 959.829904 718.259362
                   .523791E-3 .589399E-3 .565439E-3        0.0   304.8463    2.97489   3.204915   17.23421    18.5668    .172615
                         400.    .055249    .017828    .294769    .348724    .989109    .010497    .009495   1530.323   30.60646
                          0.0        0.0        0.0        0.0        0.0
Times of maxima :         .12    .065034    .072122        .12    .065034    .072122        .12    .065034    .072122        0.0
                          0.0        0.0    .077978    .065965    .072962        0.0    .006667    .113333    .077701    .064776
                      .071107    .078625    .065008    .071922    .078625    .065008    .071922    .076584    .063674    .065924
                      .101007    .064997    .072104        0.0        0.0        0.0        0.0        0.0        0.0        0.0
                          0.0        0.0        0.0        0.0        0.0        0.0        0.0        0.0        0.0        0.0
                          0.0        0.0        0.0        0.0        0.0
Variable minima :  -473600.27 -506449.37 -481526.87 -473600.27 -506449.37 -481526.87 -473600.27 -544916.51 -481526.87        0.0
                          0.0        0.0 -583625.76 -672810.84 -569209.54 -428660.71  -428660.7  -428660.7 -.104447E7  -.10241E7
                   -829642.75 -825607.86  -832201.7 -768306.45 -825607.87  -832201.7 -778067.97 -814.10452 -1100.4422 -778.50276
                   -.56081E-3 -.59618E-3 -.57364E-3        0.0   304.8463    2.97489   3.204915   17.23421    18.5668    .172615
                         400.    .055249    .017828    .294769    .348724    .989109    .010497    .009495   1530.323   30.60646
                          0.0        0.0        0.0        0.0        0.0
Times of minima :      .06992    .096508     .10327     .06992    .096508     .10327     .06992    .057413     .10327        0.0
                          0.0        0.0    .070632    .077649    .064766        .01    .016667    .103333    .089643    .072962
                      .102418    .108294    .115354    .101675    .108294    .115354    .061692    .064842    .071778    .078785
                      .069871    .096489    .103279        0.0        0.0        0.0        0.0        0.0        0.0        0.0
                          0.0        0.0        0.0        0.0        0.0        0.0        0.0        0.0        0.0        0.0
                          0.0        0.0        0.0        0.0        0.0

Blank card terminating all plot cards.            |BLANK PLOT

Memory storage figures for the preceding, now-completed data case.  -------------------------------  Present   Program
A value of  "-9999"  indicates that no figure is available.         28-Feb-22  19:34:33              figure     limit  (name)
     Size List 1.   Number of electric network nodes.                                                   37      6000  (LBUS)
     Size List 2.   Number of electric network branches.                                                39     10000  (LBRNCH)
     Size List 3.   Number of data values in R, L, C tables.                                            45    192000  (LDATA)
     Size List 4.   Number of electric network sources.                                                  3       900  (LEXCT)
     Size List 5.   Storage for [Y] and triangularized [Y].   No. times =    3     Factors =    66     189    420000  (LYMAT)
     Size List 6.   Number of entries in switch table.                  No. flops = 18                  21      1200  (LSWTCH)
     Size List 7.   Number of distinct ALPHANUMERIC data names plus program SPY variables.              25     15000  (LSIZE7)
     Size List 8.   History points of distributed lines.                                              3752    120000  (LPAST)
     Size List 9.   Number of nonlinear elements.                                                        0      2250  (LNONL)
     Size List 10.  Points of nonlinear characteristics.                                                 0      3800  (LCHAR)
     Size List 11.  Number of Type-59 S.M. outputs.                                                      0       720  (LSMOUT)
     Size List 12.  Total number of EMTP output variables.                                              55      2000  (LSIZ12)
     Size List 13.  Working space for batch/SPY plotting.                                            -9999     72800  (LSIZ13)
     Size List 14.  S.M./U.M. connections to TACS.                                                   -9999       510  (LBSTAC)
     Size List 15.  Character storage in bytes for MODELS.                                            3298     90000  (LCTACS)
     Size List 16.  Total number of Type-59 S.M. masses.                                                 0       800  (LIMASS)
     Size List 17.  Number of Type-59 Synchronous machines.                                              0        90  (LSYN)
     Size List 18.  Branch and switch power/energy outputs.                                              0       254  (MAXPE)
     Size List 19.  Total floating-point TACS table space.                                              23    120000  (LTACST)
     Size List 20.  Non-copied recursive convolution data.                                               0    100000  (LFSEM)
     Size List 21.  Total modal/phase [T] matrix storage.                                                9      3000  (LFD)
     Size List 22.  Total recursive convolution history.                                                 0     15000  (LHIST)
     Size List 23.  Giant vectors for renumbering, phasors;  also extrema accumulation.                  93    192000  (LSIZ23)
     Size List 24.  Peak phases of compensation for data.                                                0       120  (LCOMP)
     Size List 25.  Total table space for all U.M usage.                                             -9999     45000  (LSPCUM)
     Size List 26.  Square of max number of coupled phases.                                              9    260000  (LSIZ26)
     Size List 27.  Maximum number of MODELS top variables.                                             44       600  (LSIZ27)
     Size List 28.  MODELS.  Total work space is divided into INTEGER and REAL.  1st, REAL:           1780    210000  (LRTACS)
                             Second  and last,  statistics for INTEGER work space.                    6838         0  (LITACS)
     Size List 29.  RAM disk used by "TAPSAV" table saving (limit is "LABCOM" size LTLABL).          -9999       600  (LSIZ29)
     Size List 30.  Taku Noda frequency-dependent circuits.                                              0        19  (LSIZ30)
Timing figures characterizing central processor (CP) solution speed.  ----------------------------   CP sec  Wait sec  Real sec
     Data input time (through blank card ending branches) ....                                       0.000     0.000     0.000
     Node renumbering and phasor solution  ....                                                      0.047     0.000     0.047
     After phasor solution, but before time-step loop  ....                                          0.000     0.000     0.000
     Integration of equations (time-step loop)  ....                                                 0.938     0.000     0.938
     Plotting or STATISTICS termination overlays ....                                                0.016     0.000     0.016
                                                                                                    ---------------------------
                                                                                          Totals      1.000     0.000     1.000

