   ---   236   cards of disk file read into card cache cells  1   onward.
 Comment card is ignored.      |C   LBUS  LBRNCH   LDATA   LEXCT   LYMAT  LSWTCH
 Limit CIDEAL cards =   200    |CARDS        200 { Limit of CIDEAL will be 2 mor
 1st card (Lists  1-10).       |    6000   10000  192000     900  420000    120
 Comment card is ignored.      |C LSMOUT  LSIZ12  LSIZ13  LBSTAC  LCTACS  LIMASS
 2nd card (Lists 11-20).       |     720    2000   72800     510   90000     80
 Comment card is ignored.      |C    LFD   LHIST  LSIZ23   NCOMP  LSPCUM  LSIZ26
 3rd card (Lists 21-30).       |    3000   15000  192000     120   45000  26000
 4th card (Lists 31-32).       |     200     300     { Optional card for Lists
 Comment card is ignored.      |C  LWORK  LMARTI
 Supplemental offsets.         |  840000     742
 <===> Done with  "/"-card sorting by data class.    Remember that the source file appears different from interpreted input data.
Alternative Transients Program (ATP),  GNU Linux or DOS.  All rights reserved by Can/Am user group of Portland, Oregon, USA.
 Date (dd-mth-yy) and time of day (hh.mm.ss) = 28-Feb-22  19:54:03   Name of disk plot file is  draw6.3\bernal\energizacion3607.pl4
Consult the 860-page ATP Rule Book of the Can/Am EMTP User Group in Portland,  Oregon, USA.  Source code date is 12 August 2008.
Total size of LABCOM tables = 10913436 INTEGER words.  31 VARDIM  List Sizes follow:  6002  10K  192K  900  420K  1200  15K
  120K  2250  3800  720  2K  72800  510  90K  800  90  254  120K  100K  3K  15K  192K  120  45K  260K  600  210K  1100  60  200
--------------------------------------------------+--------------------------------------------------------------------------------
Descriptive interpretation of input data cards.   |  Input data card images are shown below, all 80 columns, character by character
                                                  0         1         2         3         4         5         6         7         8
                                                  012345678901234567890123456789012345678901234567890123456789012345678901234567890
--------------------------------------------------+--------------------------------------------------------------------------------
Comment card.   NUMDCD = 1.                       |C data:C:\ATP\ATPDRAW6.3\BERNAL\ENERGIZACION3607.ATP
Marker card preceding new EMTP data case.         |BEGIN NEW DATA CASE
Comment card.   NUMDCD = 3.                       |C --------------------------------------------------------
Comment card.   NUMDCD = 4.                       |C Generated by ATPDRAW  febrero, lunes 28, 2022
Comment card.   NUMDCD = 5.                       |C A Bonneville Power Administration program
Comment card.   NUMDCD = 6.                       |C by H. K. Høidalen at SEfAS/NTNU - NORWAY 1994-2016
Comment card.   NUMDCD = 7.                       |C --------------------------------------------------------
Comment card.   NUMDCD = 8.                       |C  dT  >< Tmax >< Xopt >< Copt ><Epsiln>
Misc. data.     1.000E-06   1.200E-01   5.000E+01 |   1.E-6     .12     50.
Misc. data.    500    1  0  1  1  0  0  0  0  0   |     500       1       0       1       1       0       0       0       0
  ///  Warning.  Nonzero XOPT or COPT differs from the power frequency of  6.00000000E+01  Hz.   Did the user really want this?
No TACS data,  but MODELS data begins (next).     |MODELS
      Another ordinary MODELS data card.          |OUTPUT
      Another ordinary MODELS data card.          |  AnVol
      Another ordinary MODELS data card.          |  LONG
      Another ordinary MODELS data card.          |  R0F
      Another ordinary MODELS data card.          |  R1F
      Another ordinary MODELS data card.          |  X0F
      Another ordinary MODELS data card.          |  X1F
      Another ordinary MODELS data card.          |  RDIVX
      Another ordinary MODELS data card.          |  RINSER
      Another ordinary MODELS data card.          |  CLOSE1
      Another ordinary MODELS data card.          |  RPpos
      Another ordinary MODELS data card.          |  RPcero
      Another ordinary MODELS data card.          |  LPpos
      Another ordinary MODELS data card.          |  LPcero
      Another ordinary MODELS data card.          |  CPpos
      Another ordinary MODELS data card.          |  CPcero
      Another ordinary MODELS data card.          |  Xp
      Another ordinary MODELS data card.          |  CR
      Another ordinary MODELS data card.          |  SIMET
      Another ordinary MODELS data card.          |  ENC1
      Another ordinary MODELS data card.          |  ENC2
      Another ordinary MODELS data card.          |  ENC1AS
      Another ordinary MODELS data card.          |  ENC2AS
      Another ordinary MODELS data card.          |MODEL DEFAULT
      Another ordinary MODELS data card.          |DATA AnVol,LONG,R0F,R1F,X0F,X1F,RDIVX,RINSER,CLOSE1,RPpos,RPcero,LPpos,LPcero
      Another ordinary MODELS data card.          |OUTPUT o1,o2,o3, o4, o5, o6, o7, o8, o9, o10, o11, o12, o13
      Another ordinary MODELS data card.          |VAR o1,o2,o3, o4, o5, o6, o7, o8, o9, o10, o11, o12, o13
      Another ordinary MODELS data card.          |INIT
      Another ordinary MODELS data card.          |  o1:=AnVol
      Another ordinary MODELS data card.          |  o2:=LONG
      Another ordinary MODELS data card.          |  o3:=R0F
      Another ordinary MODELS data card.          |  o4:=R1F
      Another ordinary MODELS data card.          |  o5:=X0F
      Another ordinary MODELS data card.          |  O6:=X1F
      Another ordinary MODELS data card.          |  o7:=RDIVX
      Another ordinary MODELS data card.          |  o8:=RINSER
      Another ordinary MODELS data card.          |  o9:=CLOSE1
      Another ordinary MODELS data card.          |  o10:=RPpos
      Another ordinary MODELS data card.          |  o11:=RPcero
      Another ordinary MODELS data card.          |  o12:=LPpos
      Another ordinary MODELS data card.          |  o13:=LPcero
      Another ordinary MODELS data card.          |
      Another ordinary MODELS data card.          |ENDINIT
      Another ordinary MODELS data card.          |EXEC
      Another ordinary MODELS data card.          |ENDEXEC
      Another ordinary MODELS data card.          |ENDMODEL
      Another ordinary MODELS data card.          |MODEL DEFAULT1
      Another ordinary MODELS data card.          |DATA CPpos,CPcero,Xp,CR,SIMET,ENC1,ENC2,ENC1AS,ENC2AS
      Another ordinary MODELS data card.          |OUTPUT o1, o2, o3, o4, o5, o6, o7, o8, o9
      Another ordinary MODELS data card.          |VAR o1, o2, o3, o4, o5, o6, o7, o8, o9
      Another ordinary MODELS data card.          |INIT
      Another ordinary MODELS data card.          |  o1:=CPpos
      Another ordinary MODELS data card.          |  o2:=CPcero
      Another ordinary MODELS data card.          |  o3:=Xp
      Another ordinary MODELS data card.          |  o4:=CR
      Another ordinary MODELS data card.          |  o5:=SIMET
      Another ordinary MODELS data card.          |  o6:=ENC1
      Another ordinary MODELS data card.          |  o7:=ENC2
      Another ordinary MODELS data card.          |  o8:=ENC1AS
      Another ordinary MODELS data card.          |  o9:=ENC2AS
      Another ordinary MODELS data card.          |
      Another ordinary MODELS data card.          |ENDINIT
      Another ordinary MODELS data card.          |EXEC
      Another ordinary MODELS data card.          |ENDEXEC
      Another ordinary MODELS data card.          |ENDMODEL
      Another ordinary MODELS data card.          |USE DEFAULT AS DEFAULT
      Another ordinary MODELS data card.          |DATA
      Another ordinary MODELS data card.          |  AnVol:=      0.0
      Another ordinary MODELS data card.          |  LONG:= 21.80068
      Another ordinary MODELS data card.          |  R0F:= 2.805268
      Another ordinary MODELS data card.          |  R1F:= 2.174485
      Another ordinary MODELS data card.          |  X0F:= 14.21113
      Another ordinary MODELS data card.          |  X1F:= 11.01566
      Another ordinary MODELS data card.          |  RDIVX:= 0.197399
      Another ordinary MODELS data card.          |  RINSER:=     360.
      Another ordinary MODELS data card.          |  CLOSE1:= 0.049451
      Another ordinary MODELS data card.          |  RPpos:= 0.022983
      Another ordinary MODELS data card.          |  RPcero:=  0.34263
      Another ordinary MODELS data card.          |  LPpos:= 0.302941
      Another ordinary MODELS data card.          |  LPcero:= 1.170939
      Another ordinary MODELS data card.          |OUTPUT
      Another ordinary MODELS data card.          |  AnVol:=o1
      Another ordinary MODELS data card.          |  LONG:=o2
      Another ordinary MODELS data card.          |  R0F:=o3
      Another ordinary MODELS data card.          |  R1F:=o4
      Another ordinary MODELS data card.          |  X0F:=o5
      Another ordinary MODELS data card.          |  X1F:=o6
      Another ordinary MODELS data card.          |  RDIVX:=o7
      Another ordinary MODELS data card.          |  RINSER:=o8
      Another ordinary MODELS data card.          |  CLOSE1:=o9
      Another ordinary MODELS data card.          |  RPpos:=o10
      Another ordinary MODELS data card.          |  RPcero:=o11
      Another ordinary MODELS data card.          |  LPpos:=o12
      Another ordinary MODELS data card.          |  LPcero:=o13
      Another ordinary MODELS data card.          |ENDUSE
      Another ordinary MODELS data card.          |USE DEFAULT1 AS DEF
      Another ordinary MODELS data card.          |DATA
      Another ordinary MODELS data card.          |  CPpos:= 0.010578
      Another ordinary MODELS data card.          |  CPcero:= 0.006824
      Another ordinary MODELS data card.          |  Xp:= 21235.59
      Another ordinary MODELS data card.          |  CR:= 424.7118
      Another ordinary MODELS data card.          |  SIMET:=      0.0
      Another ordinary MODELS data card.          |  ENC1:=      0.0
      Another ordinary MODELS data card.          |  ENC2:=      0.0
      Another ordinary MODELS data card.          |  ENC1AS:=       1.
      Another ordinary MODELS data card.          |  ENC2AS:=      0.0
      Another ordinary MODELS data card.          |OUTPUT
      Another ordinary MODELS data card.          |  CPpos:=o1
      Another ordinary MODELS data card.          |  CPcero:=o2
      Another ordinary MODELS data card.          |  Xp:=o3
      Another ordinary MODELS data card.          |  CR:=o4
      Another ordinary MODELS data card.          |  SIMET:=o5
      Another ordinary MODELS data card.          |  ENC1:=o6
      Another ordinary MODELS data card.          |  ENC2:=o7
      Another ordinary MODELS data card.          |  ENC1AS:=o8
      Another ordinary MODELS data card.          |  ENC2AS:=o9
      Another ordinary MODELS data card.          |ENDUSE
      Another ordinary MODELS data card.          |RECORD
      Another ordinary MODELS data card.          |  DEFAULT.o1 AS AnVOL
      Another ordinary MODELS data card.          |  DEFAULT.o2 AS LONG
      Another ordinary MODELS data card.          |  DEFAULT.o3 AS R0F
      Another ordinary MODELS data card.          |  DEFAULT.o4 AS R1F
      Another ordinary MODELS data card.          |  DEFAULT.o5 AS X0F
      Another ordinary MODELS data card.          |  DEFAULT.o6 AS X1F
      Another ordinary MODELS data card.          |  DEFAULT.o7 AS RDIVX
      Another ordinary MODELS data card.          |  DEFAULT.o8 AS RINSER
      Another ordinary MODELS data card.          |  DEFAULT.o9 AS CLOSE1
      Another ordinary MODELS data card.          |  DEFAULT.o10 AS RPpos
      Another ordinary MODELS data card.          |  DEFAULT.o11 AS RPcero
      Another ordinary MODELS data card.          |  DEFAULT.o12 AS LPpos
      Another ordinary MODELS data card.          |  DEFAULT.o13 AS LPcero
      Another ordinary MODELS data card.          |  DEF.o1 AS CPpos
      Another ordinary MODELS data card.          |  DEF.o2 AS CPcero
      Another ordinary MODELS data card.          |  DEF.o3 AS Xp
      Another ordinary MODELS data card.          |  DEF.o4 AS CR
      Another ordinary MODELS data card.          |  DEF.o5 AS SIMET
      Another ordinary MODELS data card.          |  DEF.o6 AS ENC1
      Another ordinary MODELS data card.          |  DEF.o7 AS ENC2
      Another ordinary MODELS data card.          |  DEF.o8 AS ENC1AS
      Another ordinary MODELS data card.          |  DEF.o9 AS ENC2AS
Termination of data for Laurent Dube`s MODELS.    |ENDMODELS
Comment card.   NUMDCD = 153.                     |C        1         2         3         4         5         6         7         8
Comment card.   NUMDCD = 154.                     |C 345678901234567890123456789012345678901234567890123456789012345678901234567890
Optional blank card follows last of MODELS data.  |BLANK MODELS
Comment card.   NUMDCD = 156.                     |C < n1 >< n2 ><ref1><ref2>< R  >< L  >< C  >
Comment card.   NUMDCD = 157.                     |C < n1 >< n2 ><ref1><ref2>< R  >< A  >< B  ><Leng><><>0
1st of coupled R-L.   2.80530E+00  4.52354E-02    |51IFUENASB1A              2.805314.211125355
2nd coil. 2.175E+00 3.506E-02 0.000E+00 0.000E+00 |52IFUENBSB1B              2.174511.015658893
Zca, Zcc= 2.103E-01 3.390E-03 2.385E+00 3.845E-02 |53IFUENCSB1C
Series R-L-C.   1.000E+09  0.000E+00  0.000E+00   |  SB1A                      1.E9                                               0
Series R-L-C.   1.000E+09  0.000E+00  0.000E+00   |  SB1B                      1.E9                                               0
Series R-L-C.   1.000E+09  0.000E+00  0.000E+00   |  SB1C                      1.E9                                               0
Series R-L-C.   4.247E+02  6.760E+01  0.000E+00   |  RSNSHA                  424.7121236.                                         0
Series R-L-C.   4.247E+02  6.760E+01  0.000E+00   |  RSNSHB                  424.7121236.                                         0
Series R-L-C.   4.247E+02  6.760E+01  0.000E+00   |  RSNSHC                  424.7121236.                                         0
Series R-L-C.   1.000E+09  0.000E+00  0.000E+00   |  RSNNHA                    1.E9                                               0
Series R-L-C.   1.000E+09  0.000E+00  0.000E+00   |  RSNNHB                    1.E9                                               0
Series R-L-C.   1.000E+09  0.000E+00  0.000E+00   |  RSNNHC                    1.E9                                               0
Series R-L-C.   1.000E+09  0.000E+00  0.000E+00   |  SE2A                      1.E9                                               0
Series R-L-C.   1.000E+09  0.000E+00  0.000E+00   |  SE2B                      1.E9                                               0
Series R-L-C.   1.000E+09  0.000E+00  0.000E+00   |  SE2C                      1.E9                                               0
Series R-L-C.   2.500E+02  0.000E+00  3.000E-10   |  X0001B                    250.       .0003                                   0
Series R-L-C.   2.500E+02  0.000E+00  3.000E-10   |  X0002B                    250.       .0003                                   0
Series R-L-C.   1.000E-06  0.000E+00  0.000E+00   |  X0001ALN1A               1.E-6                                               0
Series R-L-C.   1.000E-06  0.000E+00  0.000E+00   |  SB1A  X0002A             1.E-6                                               0
Series R-L-C.   1.000E-06  0.000E+00  0.000E+00   |  X0001BLN1B               1.E-6                                               0
Series R-L-C.   1.000E-06  0.000E+00  0.000E+00   |  SB1B  X0002B             1.E-6                                               0
Series R-L-C.   1.000E-06  0.000E+00  0.000E+00   |  X0001CLN1C               1.E-6                                               0
Series R-L-C.   1.000E-06  0.000E+00  0.000E+00   |  SB1C  X0002C             1.E-6                                               0
Series R-L-C.   3.600E+02  0.000E+00  0.000E+00   |  XX0005X0002A              360.                                               0
Series R-L-C.   3.600E+02  0.000E+00  0.000E+00   |  XX0003X0002B              360.                                               0
Series R-L-C.   3.600E+02  0.000E+00  0.000E+00   |  XX0004X0002C              360.                                               0
Series R-L-C.   2.500E+02  0.000E+00  3.000E-10   |  X0001A                    250.       .0003                                   0
Series R-L-C.   1.000E+06  0.000E+00  0.000E+00   |  X0001AX0002A              1.E6                                               0
Series R-L-C.   1.000E+06  0.000E+00  0.000E+00   |  X0001BX0002B              1.E6                                               0
Series R-L-C.   1.000E+06  0.000E+00  0.000E+00   |  X0001CX0002C              1.E6                                               0
Series R-L-C.   2.500E+02  0.000E+00  3.000E-10   |  X0002C                    250.       .0003                                   0
Series R-L-C.   2.500E+02  0.000E+00  3.000E-10   |  X0002A                    250.       .0003                                   0
Series R-L-C.   2.500E+02  0.000E+00  3.000E-10   |  X0001C                    250.       .0003                                   0
Series R-L-C.   1.250E+02  0.000E+00  6.000E-10   |  X0001AX0002A              125.       .0006                                   0
Series R-L-C.   1.250E+02  0.000E+00  6.000E-10   |  X0001BX0002B              125.       .0006                                   0
Series R-L-C.   1.250E+02  0.000E+00  6.000E-10   |  X0001CX0002C              125.       .0006                                   0
 3.426E-01 1.171E+00 6.820E-03 7.393E+02 1.099E-04|-1LN1A  VFF2A             .342631.1709.0068221.801 0 0                         0
 2.298E-02 3.029E-01 1.058E-02 3.019E+02 6.963E-05|-2LN1B  VFF2B             .02298.30294.0105821.801 0 0                         0
3rd or later transposed distributed phase.        |-3LN1C  VFF2C                                                                  0
Blank card ending branches.  IBR, NTOT = 39  31   |BLANK BRANCH
Comment card.   NUMDCD = 198.                     |C < n 1>< n 2>< Tclose ><Top/Tde ><   Ie   ><Vf/CLOP ><  type  >
Switch.  -1.00E+00  1.00E+01  0.00E+00  0.00E+00  |  LN1A  COMPA        -1.       10.                                             0
Switch.  -1.00E+00  1.00E+01  0.00E+00  0.00E+00  |  LN1B  COMPB        -1.       10.                                             0
Switch.  -1.00E+00  1.00E+01  0.00E+00  0.00E+00  |  LN1C  COMPC        -1.       10.                                             0
Switch.  -1.00E+00  1.00E+01  0.00E+00  0.00E+00  |  VFF2A RSNNHA       -1.       10.                                             0
Switch.  -1.00E+00  1.00E+01  0.00E+00  0.00E+00  |  VFF2B RSNNHB       -1.       10.                                             0
Switch.  -1.00E+00  1.00E+01  0.00E+00  0.00E+00  |  VFF2C RSNNHC       -1.       10.                                             0
Switch.   2.00E+00 -1.00E+00  0.00E+00  0.00E+00  |  VFF2A SE2A          2.       -1.                                             0
Switch.   2.00E+00 -1.00E+00  0.00E+00  0.00E+00  |  VFF2B SE2B          2.       -1.                                             0
Switch.   2.00E+00 -1.00E+00  0.00E+00  0.00E+00  |  VFF2C SE2C          2.       -1.                                             0
Switch.   4.95E-02  1.00E+03  0.00E+00  0.00E+00  |  X0001BXX0003.049451194      1.E3                                             0
Switch.   4.95E-02  1.00E+03  0.00E+00  0.00E+00  |  X0001CXX0004.049451194      1.E3                                             0
Switch.   5.70E-02  1.00E+03  0.00E+00  0.00E+00  |  XX0005X0002A.056951194      1.E3                                             0
Switch.   5.70E-02  1.00E+03  0.00E+00  0.00E+00  |  XX0003X0002B.056951194      1.E3                                             0
Switch.   5.70E-02  1.00E+03  0.00E+00  0.00E+00  |  XX0004X0002C.056951194      1.E3                                             0
Switch.   4.95E-02  1.00E+03  0.00E+00  0.00E+00  |  X0001AXX0005.049451194      1.E3                                             0
Permanently-closed switch used for metering.      |  VFUENAIFUENA                                        MEASURING                1
Permanently-closed switch used for metering.      |  VFUENBIFUENB                                        MEASURING                1
Permanently-closed switch used for metering.      |  VFUENCIFUENC                                        MEASURING                1
Permanently-closed switch used for metering.      |  COMPA RSNSHA                                        MEASURING                1
Permanently-closed switch used for metering.      |  COMPB RSNSHB                                        MEASURING                1
Permanently-closed switch used for metering.      |  COMPC RSNSHC                                        MEASURING                1
Blank card ending switches.   KSWTCH = 21.        |BLANK SWITCH
Comment card.   NUMDCD = 221.                     |C < n 1><>< Ampl.  >< Freq.  ><Phase/T0><   A1   ><   T1   >< TSTART >< TSTOP  >
Source.   4.29E+05  5.00E+01  0.00E+00 -1.00E+00  |14VFUENA  428660.705       50.                                     -1.      100.
Source.   4.29E+05  5.00E+01 -1.20E+02 -1.00E+00  |14VFUENB  428660.705       50.     -120.                           -1.      100.
Source.   4.29E+05  5.00E+01 -2.40E+02 -1.00E+00  |14VFUENC  428660.705       50.     -240.                           -1.      100.
Blank card ends electric sources.  KCONST = 3     |BLANK SOURCE
Pi-equivalent branches of distributed circuits are added to the table of List Size 3 between indices  40   and  45.

Sinusoidal steady-state phasor solution, branch by branch.   All flows are away from a bus,  and the real part,  magnitude,  or  "P"
is printed above the imaginary part,  the angle,  or  "Q".   The first solution frequency  =  5.00000000E+01  Hertz.
  Bus K                        Phasor  node  voltage              Phasor  branch  current               Power flow       Power loss
             Bus M         Rectangular            Polar          Rectangular            Polar            P  and  Q        P  and  Q

 IFUENA                    428660.705       428660.705      .42160305735145  .44321946259569      90362.331897213  .21358318670219
                                  0.0              0.0      .13672729813584       17.9680541      -29304.81000583        1.0819772

            SB1A      428661.29436543  428661.29439391      -.4216030573514  .44321946259569      -90362.11831403
                      -4.941548977832       -0.0006605      -.1367272981358     -162.0319459      29305.891983077

 IFUENB                  -214330.3525       428660.705      -.0923922150998  .44321946259583      90362.331897276   .2135831867016
                      -371231.0601341     -120.0000000      -.4334826070475     -102.0319459      -29304.81000573        1.0819772

            SB1B      -214334.9266897  428661.29439391      .09239221509982  .44321946259583      -90362.11831409
                      -371229.0997651     -120.0006605      .43348260704748       77.9680541      29305.891982979

 IFUENC                  -214330.3525       428660.705      -.3292108422465  .44321946259494      90362.331897561  .21358318670364
                      371231.06013415      120.0000000      .29675530891675      137.9680541      -29304.81000423        1.0819772

            SB1C      -214326.3676758  428661.29439391      .32921084224654  .44321946259494      -90362.11831437
                      371234.04131407      119.9993395      -.2967553089167      -42.0319459      29305.891981482

 SB1A                 428661.29436543  428661.29439391      .42866129437E-3  .42866129439E-3      91.875252655732  91.875252655732
                      -4.941548977832       -0.0006605      -.4941548978E-8       -0.0006605      .8946785505E-19        0.0000000

            TERRA                 0.0              0.0      -.4286612944E-3  .42866129439E-3                  0.0
                                  0.0              0.0      .49415489778E-8      179.9993395                  0.0

 SB1B                 -214334.9266897  428661.29439391      -.2143349267E-3  .42866129439E-3      91.875252655732  91.875252655732
                      -371229.0997651     -120.0006605      -.3712290998E-3     -120.0006605      -.149186219E-15        0.0000000

            TERRA                 0.0              0.0      .21433492669E-3  .42866129439E-3                  0.0
                                  0.0              0.0      .37122909977E-3       59.9993395                  0.0

 SB1C                 -214326.3676758  428661.29439391      -.2143263677E-3  .42866129439E-3      91.875252655732  91.875252655732
                      371234.04131407      119.9993395      .37123404131E-3      119.9993395      -.341046635E-14        0.0000000

            TERRA                 0.0              0.0      .21432636768E-3  .42866129439E-3                  0.0
                                  0.0              0.0      -.3712340413E-3      -60.0006605                  0.0

 RSNSHA               4383.2256135565   16934.36675279       -.765826774464   .7972773146804      134.98369284521  134.98369284521
                      -16357.26476336      -74.9989878      -.2217216002514     -163.8532519      6749.3435550394     6749.3435550

            TERRA                 0.0              0.0      .76582677446401   .7972773146804                  0.0
                                  0.0              0.0      .22172160025142       16.1467481                  0.0

 RSNSHB               -16357.41962828  16934.366752831      .19089684885406  .79727731468231      134.98369284585  134.98369284585
                      4382.6476499814      165.0010122      .77408624170994       76.1467481      6749.3435550717     6749.3435551

            TERRA                 0.0              0.0      -.1908968488541  .79727731468231                  0.0
                                  0.0              0.0      -.7740862417099     -103.8532519                  0.0

 RSNSHC               11974.194014855  16934.366752945      .57492992562152  .79727731468768      134.98369284767  134.98369284767
                      11974.617113622       45.0010122      -.5523646414647      -43.8532519      6749.3435551627     6749.3435552

            TERRA                 0.0              0.0      -.5749299256215  .79727731468768                  0.0
                                  0.0              0.0      .55236464146471      136.1467481                  0.0

 RSNNHA               4383.9775256716  16938.419685854      .43839775257E-5  .16938419686E-4      .14345503072706  .14345503072706
                      -16361.25919691      -75.0000283       -.163612592E-4      -75.0000283      -.663396204E-17        0.0000000

            TERRA                 0.0              0.0      -.4383977526E-5  .16938419686E-4                  0.0
                                  0.0              0.0      .16361259197E-4      104.9999717                  0.0

 RSNNHB               -16361.25486526  16938.419685894      -.1636125487E-4  .16938419686E-4      .14345503072774  .14345503072774
                      4383.9936917639      164.9999717      .43839936918E-5      164.9999717      .7521652572E-18        0.0000000

            TERRA                 0.0              0.0      .16361254865E-4  .16938419686E-4                  0.0
                                  0.0              0.0      -.4383993692E-5      -15.0000283                  0.0

 RSNNHC               11977.277339727  16938.419686008       .1197727734E-4  .16938419686E-4      .14345503072968  .14345503072968
                      11977.265505391       44.9999717      .11977265505E-4       44.9999717      -.243945489E-17        0.0000000

            TERRA                 0.0              0.0      -.1197727734E-4  .16938419686E-4                  0.0
                                  0.0              0.0      -.1197726551E-4     -135.0000283                  0.0

 X0001B                -16357.4196284  16934.366752847      -.4130911338E-3  .00159602646508      .31841255965E-3  .31841255965E-3
                        4382.64764957      165.0010122      -.0015416407469     -105.0003378      -13.51384874966      -13.5138487

            TERRA                 0.0              0.0      .41309113383E-3  .00159602646508                  0.0
                                  0.0              0.0      .00154164074686       74.9996622                  0.0

 X0002B               -214334.9266896  428661.29439349      .03498704239395  .04040037518913      .20402378942793  .20402378942793
                      -371229.0997647     -120.0006605      -.0202014152956      -30.0020105      -8659.038558874    -8659.0385589

            TERRA                 0.0              0.0      -.0349870423939  .04040037518913                  0.0
                                  0.0              0.0      .02020141529564      149.9979895                  0.0

 X0001A               4383.2256139762  16934.366752806      .41965631680796  .43047743522077      135.28296482023  .92655411121E-7
                      -16357.26476326      -74.9989878      .09591349225957       12.8739698      -3642.419979801              0.0

            LN1A      4383.2256135565   16934.36675279       -.419656316808  .43047743522077      -135.2829647276
                      -16357.26476336      -74.9989878      -.0959134922596     -167.1260302      3642.4199798011

 SB1A                 428661.29436543  428661.29439391      .42119063436985  .44282717389161      90273.723429455  .98047955532E-7
                      -4.941548977832       -0.0006605      .13672730325709       17.9845162      -29305.89206171        0.0000000

            X0002A    428661.29436501  428661.29439349      -.4211906343699  .44282717389161      -90273.72342936
                       -4.94154911456       -0.0006605      -.1367273032571     -162.0154838      29305.892061714

 X0001B                -16357.4196284  16934.366752847      -.1267635525437  .43047638236801      135.27577247278  .92654957873E-7
                        4382.64764957      165.0010122      -.4113890099688     -107.1259222       -3642.41132609        0.0000000

            LN1B      -16357.41962828  16934.366752831      .12676355254371  .43047638236801      -135.2757723801
                      4382.6476499814      165.0010122      .41138900996884       72.8740778      3642.4113260901

 SB1B                 -214334.9266897  428661.29439391      -.0921718310565  .44282203764718      90271.790039409  .98045681796E-7
                      -371229.0997651     -120.0006605      -.4331232048571     -102.0137510      -29308.28224692              0.0

            X0002B    -214334.9266896  428661.29439349      .09217183105648  .44282203764718      -90271.79003931
                      -371229.0997647     -120.0006605      .43312320485711       77.9862490      29308.282246923

 X0001C               11974.194014562  16934.366752961      -.2928900357801  .43047642116692      135.29365543849  .92654974582E-7
                      11974.617113938       45.0010122      .31547642720398      132.8737966      -3642.410990658              0.0

            LN1C      11974.194014855  16934.366752945      .29289003578015  .43047642116692      -135.2936553458
                      11974.617113622       45.0010122       -.315476427204      -47.1262034      3642.4109906581

 SB1C                 -214326.3676758  428661.29439391      -.3289896994829  .44281291250894      90271.245236354  .98041638807E-7
                      371234.04131407      119.9993395      .29639340937138      137.9836772      -29303.62642807        0.0000000

            X0002C    -214326.3676754  428661.29439349      .32898969948292  .44281291250894      -90271.24523626
                      371234.04131377      119.9993395      -.2963934093714      -42.0163228      29303.626428071

 XX0005               428661.29436501  428661.29439349                  0.0              0.0                  0.0              0.0
                       -4.94154911456       -0.0006605                  0.0              0.0                  0.0              0.0

            X0002A    428661.29436501  428661.29439349                  0.0              0.0                  0.0
                       -4.94154911456       -0.0006605                  0.0              0.0                  0.0

 XX0003               -214334.9266896  428661.29439349                  0.0              0.0                  0.0              0.0
                      -371229.0997647     -120.0006605                  0.0              0.0                  0.0              0.0

            X0002B    -214334.9266896  428661.29439349                  0.0              0.0                  0.0
                      -371229.0997647     -120.0006605                  0.0              0.0                  0.0

 XX0004               -214326.3676754  428661.29439349                  0.0              0.0                  0.0              0.0
                      371234.04131377      119.9993395                  0.0              0.0                  0.0              0.0

            X0002C    -214326.3676754  428661.29439349                  0.0              0.0                  0.0
                      371234.04131377      119.9993395                  0.0              0.0                  0.0

 X0001A               4383.2256139762  16934.366752806       .0015416456172  .00159602646507      .31841255965E-3  .31841255965E-3
                      -16357.26476326      -74.9989878      .41307295747E-3       14.9996622       -13.5138487496      -13.5138487

            TERRA                 0.0              0.0      -.0015416456172  .00159602646507                  0.0
                                  0.0              0.0      -.4130729575E-3     -165.0003378                  0.0

 X0001A               4383.2256139762  16934.366752806       -.424278068751  .42459307353937      -796.1136090448  90139.639048803
                      -16357.26476326      -74.9989878      -.0163523232141     -177.7928258      3505.8523128837        0.0000000

            X0002A    428661.29436501  428661.29439349      .42427806875103  .42459307353937      90935.752657848
                       -4.94154911456       -0.0006605      .01635232321415        2.2071742      -3505.852312884

 X0001B                -16357.4196284  16934.366752847      .19797750706117  .42459307353951      -796.1136090143  90139.639048863
                        4382.64764957      165.0010122      .37561174741423       62.2071742      3505.8523129007        0.0000000

            X0002B    -214334.9266896  428661.29439349      -.1979775070612  .42459307353951      90935.752657877
                      -371229.0997647     -120.0006605      -.3756117474142     -117.7928258      -3505.852312901

 X0001C               11974.194014562  16934.366752961         .22630056169  .42459307353937      -796.1136090431  90139.639048803
                      11974.617113938       45.0010122      -.3592594241998      -57.7928258      3505.8523129178        0.0000000

            X0002C    -214326.3676754  428661.29439349        -.22630056169  .42459307353937      90935.752657847
                      371234.04131377      119.9993395      .35925942419984      122.2071742      -3505.852312918

 X0002C               -214326.3676754  428661.29439349      -.0349884600354  .04040037518913      .20402378942797  .20402378942797
                      371234.04131377      119.9993395      -.0201989598686     -150.0020105      -8659.038558874    -8659.0385589

            TERRA                 0.0              0.0      .03498846003539  .04040037518913                  0.0
                                  0.0              0.0      .02019895986862       29.9979895                  0.0

 X0002A               428661.29436501  428661.29439349      .14176414455E-5  .04040037518913      .20402378942783  .20402378942783
                       -4.94154911456       -0.0006605      .04040037516426       89.9979895      -8659.038558874    -8659.0385589

            TERRA                 0.0              0.0      -.1417641446E-5  .04040037518913                  0.0
                                  0.0              0.0      -.0404003751643      -90.0020105                  0.0

 X0001C               11974.194014562  16934.366752961      -.0011285544834  .00159602646509      .31841255966E-3  .31841255966E-3
                      11974.617113938       45.0010122       .0011285677894      134.9996622      -13.51384874985      -13.5138487

            TERRA                 0.0              0.0      .00112855448339  .00159602646509                  0.0
                                  0.0              0.0      -.0011285677894      -45.0003378                  0.0

 X0001A               4383.2256139762  16934.366752806       .0030804559515  .08003390881357      660.83405607983  .40033915999863
                      -16357.26476326      -74.9989878      -.0799746044136      -87.7941758      150.07945047149   -16990.9216605

            X0002A    428661.29436501  428661.29439349      -.0030804559515  .08003390881357      -660.4337169198
                       -4.94154911456       -0.0006605      .07997460441358       92.2058242      -17141.00111102

 X0001B                -16357.4196284  16934.366752847      -.0708002670556  .08003390881359      660.83405608303  .40033915999891
                        4382.64764957      165.0010122      .03731954909755      152.2058242      150.07945046576   -16990.9216606

            X0002B    -214334.9266896  428661.29439349      .07080026705555  .08003390881359       -660.433716923
                      -371229.0997647     -120.0006605      -.0373195490976      -27.7941758      -17141.00111102

 X0001C               11974.194014562  16934.366752961      .06771981110401  .08003390881357      660.83405608626  .40033915999876
                      11974.617113938       45.0010122      .04265505531605       32.2058242      150.07945047118   -16990.9216605

            X0002C    -214326.3676754  428661.29439349       -.067719811104  .08003390881357      -660.4337169263
                      371234.04131377      119.9993395      -.0426550553161     -147.7941758      -17141.00111102

 LN1A                 4383.2256135565   16934.36675279      1.1854824179125   1.227298501946      .28495146174517  .14149643048987
                      -16357.26476336      -74.9989878      .31763666302752       14.9994411      -10391.76146964   -10391.7614696

            VFF2A     4383.9775256716  16938.419685854      -.4383977357E-5  .16938419748E-4      -.1434550312553
                      -16361.25919691      -75.0000283      .16361259307E-4      104.9999710      -.1621304177E-8

 LN1B                 -16357.41962828  16934.366752831      -.3176597896086  1.2272985019482       .2849514280852  .14149639672547
                      4382.6476499814      165.0010122      -1.185476221166     -105.0005589      -10391.76146969   -10391.7614697

            VFF2B     -16361.25486526  16938.419685894      .16361254977E-4  .16938419761E-4      -.1434550313597
                      4383.9936917639      164.9999717      -.4383993562E-5      -15.0000278      .13082975703E-8

 LN1C                 11974.194014855  16934.366752945      -.8678226283155  1.2272985019533      .28495145196155  .14149642183922
                      11974.617113622       45.0010122       .8678395581445      134.9994411       -10391.7614698   -10391.7614698

            VFF2C     11977.277339727  16938.419686008      -.1197727734E-4  .16938419614E-4      -.1434550301223
                      11977.265505391       44.9999717      -.1197726541E-4     -135.0000285      -.5526983015E-9
     Total network loss  P-loss  by summing injections =   2.710881659865E+05

Output for steady-state phasor switch currents.
      Node-K    Node-M            I-real            I-imag            I-magn          Degrees        Power            Reactive
      LN1A      COMPA        -7.65827118E-01   -2.21722489E-01    7.97277892E-01    -163.8532    1.34990211E+02    6.74934831E+03
      LN1B      COMPB         1.90896661E-01    7.74086926E-01    7.97277934E-01      76.1468    1.34986732E+02    6.74934874E+03
      LN1C      COMPC         5.74930089E-01   -5.52364780E-01    7.97277528E-01     -43.8533    1.34983844E+02    6.74934536E+03
      VFF2A     RSNNHA        4.38397743E-06   -1.63612592E-05    1.69384196E-05     -75.0000    1.43455030E-01    7.30534838E-10
      VFF2B     RSNNHB       -1.63612550E-05    4.38399367E-06    1.69384198E-05     165.0000    1.43455032E-01   -5.13908212E-10
      VFF2C     RSNNHC        1.19772775E-05    1.19772654E-05    1.69384197E-05      45.0000    1.43455031E-01    1.75785618E-09
      VFF2A     SE2A              Open              Open              Open             Open          Open              Open
      VFF2B     SE2B              Open              Open              Open             Open          Open              Open
      VFF2C     SE2C              Open              Open              Open             Open          Open              Open
      X0001B    XX0003            Open              Open              Open             Open          Open              Open
      X0001C    XX0004            Open              Open              Open             Open          Open              Open
      XX0005    X0002A            Open              Open              Open             Open          Open              Open
      XX0003    X0002B            Open              Open              Open             Open          Open              Open
      XX0004    X0002C            Open              Open              Open             Open          Open              Open
      X0001A    XX0005            Open              Open              Open             Open          Open              Open
      VFUENA    IFUENA        4.21603057E-01    1.36727298E-01    4.43219463E-01      17.9681    9.03623319E+04   -2.93048100E+04
      VFUENB    IFUENB       -9.23922151E-02   -4.33482607E-01    4.43219463E-01    -102.0319    9.03623319E+04   -2.93048100E+04
      VFUENC    IFUENC       -3.29210842E-01    2.96755309E-01    4.43219463E-01     137.9681    9.03623319E+04   -2.93048100E+04
      COMPA     RSNSHA       -7.65827118E-01   -2.21722489E-01    7.97277892E-01    -163.8532    1.34990211E+02    6.74934831E+03
      COMPB     RSNSHB        1.90896661E-01    7.74086926E-01    7.97277934E-01      76.1468    1.34986732E+02    6.74934874E+03
      COMPC     RSNSHC        5.74930089E-01   -5.52364780E-01    7.97277528E-01     -43.8533    1.34983844E+02    6.74934536E+03

Solution at nodes with known voltage.   Nodes that are shorted together by switches are shown as a group of names, with the printed
result applying to the composite group.   The entry "MVA" is  SQRT( P**2 + Q**2 )  in units of power,  while  "P.F."  is the
associated power factor.
              Node                Source  node  voltage             Injected  source  current              Injected  source  power
              name         Rectangular            Polar          Rectangular            Polar            P  and  Q    MVA and P.F.

               VFUENA
              IFUENA       428660.705       428660.705      .42160305735277   .4432194625953      90362.331897497  94995.383652912
                                  0.0              0.0      .13672729813051       17.9680541      -29304.81000468        0.9512287

               VFUENB
              IFUENB     -214330.3525       428660.705      -.0923922151004   .4432194625959      90362.331897328   94995.38365304
                      -371231.0601341     -120.0000000      -.4334826070474     -102.0319459      -29304.81000562        0.9512287

               VFUENC
              IFUENC     -214330.3525       428660.705      -.3292108422462  .44321946259582      90362.331897841  94995.383653024
                      371231.06013415      120.0000000      .29675530891845      137.9680541      -29304.81000398        0.9512287

  +++  Node  "COMPC "  has no connected linear branches.  Add (to ground) the conductance  G = 1.00000000E-18  mhos.
  +++  Node  "COMPB "  has no connected linear branches.  Add (to ground) the conductance  G = 1.00000000E-18  mhos.
  +++  Node  "COMPA "  has no connected linear branches.  Add (to ground) the conductance  G = 1.00000000E-18  mhos.
Card of names for time-step loop output.          |  LN1A  LN1B  LN1C  COMPA COMPB COMPC SB1A  SB1B  SB1C  SE2A  SE2B  SE2C  VFF2A
Card of names for time-step loop output.          |  VFF2B VFF2C IFUENAIFUENBIFUENC
Card of names for time-step loop output.          |-5VFF2A VFF2B VFF2B VFF2C VFF2C VFF2A LN1A  LN1B  LN1B  LN1C  LN1C  LN1A
Card of names for time-step loop output.          |-5SB1A  SB1B  SB1B  SB1C  SB1C  SB1A
Blank card ending requests for output variables.  |BLANK OUTPUT

Column headings for the  55   EMTP output variables follow.  These are divided among the 5 possible classes as follows ....
  First  27     output variables are electric-network voltage differences (upper voltage minus lower voltage);
  Next   6     output variables are branch currents (flowing from the upper node to the lower node);
  Next   22     output variables belong to MODELS (with "MODELS" an internally-added upper name of pair).
   Step      Time      LN1A       LN1B       LN1C       COMPA      COMPB      COMPC      SB1A       SB1B       SB1C       SE2A
 

                       SE2B       SE2C       VFF2A      VFF2B      VFF2C      IFUENA     IFUENB     IFUENC     VFF2A      VFF2B
                                                                                                               VFF2B      VFF2C

                       VFF2C      LN1A       LN1B       LN1C       SB1A       SB1B       SB1C       VFUENA     VFUENB     VFUENC
                       VFF2A      LN1B       LN1C       LN1A       SB1B       SB1C       SB1A       IFUENA     IFUENB     IFUENC

                       COMPA      COMPB      COMPC      MODELS     MODELS     MODELS     MODELS     MODELS     MODELS     MODELS
                       RSNSHA     RSNSHB     RSNSHC     ANVOL      LONG       R0F        R1F        X0F        X1F        RDIVX

                       MODELS     MODELS     MODELS     MODELS     MODELS     MODELS     MODELS     MODELS     MODELS     MODELS
                       RINSER     CLOSE1     RPPOS      RPCERO     LPPOS      LPCERO     CPPOS      CPCERO     XP         CR

                       MODELS     MODELS     MODELS     MODELS     MODELS
                       SIMET      ENC1       ENC2       ENC1AS     ENC2AS
 ***      Phasor I(0) = -7.6582712E-01                     Switch  "LN1A  "  to  "COMPA "  closed in the steady-state.
 ***      Phasor I(0) =  1.9089666E-01                     Switch  "LN1B  "  to  "COMPB "  closed in the steady-state.
 ***      Phasor I(0) =  5.7493009E-01                     Switch  "LN1C  "  to  "COMPC "  closed in the steady-state.
 ***      Phasor I(0) =  4.3839774E-06                     Switch  "VFF2A "  to  "RSNNHA"  closed in the steady-state.
 ***      Phasor I(0) = -1.6361255E-05                     Switch  "VFF2B "  to  "RSNNHB"  closed in the steady-state.
 ***      Phasor I(0) =  1.1977278E-05                     Switch  "VFF2C "  to  "RSNNHC"  closed in the steady-state.
 ***      Phasor I(0) =  4.2160306E-01                     Switch  "VFUENA"  to  "IFUENA"  closed in the steady-state.
 ***      Phasor I(0) = -9.2392215E-02                     Switch  "VFUENB"  to  "IFUENB"  closed in the steady-state.
 ***      Phasor I(0) = -3.2921084E-01                     Switch  "VFUENC"  to  "IFUENC"  closed in the steady-state.
 ***      Phasor I(0) = -7.6582712E-01                     Switch  "COMPA "  to  "RSNSHA"  closed in the steady-state.
 ***      Phasor I(0) =  1.9089666E-01                     Switch  "COMPB "  to  "RSNSHB"  closed in the steady-state.
 ***      Phasor I(0) =  5.7493009E-01                     Switch  "COMPC "  to  "RSNSHC"  closed in the steady-state.
      0       0.0  4383.22561  -16357.42  11974.194 4383.22561  -16357.42  11974.194 428661.294 -214334.93 -214326.37        0.0
                          0.0        0.0 4383.97753 -16361.255 11977.2773 428660.705 -214330.35 -214330.35 20745.2324 -28338.532
                   7593.29981 20740.6452 -28331.614  7590.9684 642996.221 -8.5590139 -642987.66 .421603057 -.09239222 -.32921084
                   -.76582712 .190896661 .574930089        0.0   21.80068   2.805268   2.174485   14.21113   11.01566    .197399
                         360.    .049451    .022983     .34263    .302941   1.170939    .010578    .006824   21235.59   424.7118
                          0.0        0.0        0.0        1.0        0.0
    500     .5E-3  6888.10096  -16841.63 9953.52947 6888.10096  -16841.63 9953.52947  423384.64 -153623.14 -269761.51        0.0
                          0.0        0.0 6889.47165 -16845.631 9956.15919  423383.18 -153618.26 -269764.92 23735.1025  -26801.79
                   3066.68753 23729.7314  -26795.16 3065.42852 577007.775  116138.37 -693146.15 .395053469 -.02345408 -.37159939
                   -.72171301 .067451436 .654260668        0.0   21.80068   2.805268   2.174485   14.21113   11.01566    .197399
                         360.    .049451    .022983     .34263    .302941   1.170939    .010578    .006824   21235.59   424.7118
                          0.0        0.0        0.0        1.0        0.0
   1000     .1E-2  9223.36497 -16911.143 7687.77814 9223.36497 -16911.143 7687.77814 407682.634 -89128.523 -318554.11        0.0
                          0.0        0.0 9225.31088 -16915.204 7689.89361 407680.557 -89123.572 -318556.98 26140.5154 -24605.098
                   -1535.4173 26134.5081 -24598.921 -1535.5868 496811.158 229425.587 -726236.75 .358751311 .046074021 -.40482533
                   -.65982833 -.05765416  .71748158        0.0   21.80068   2.805268   2.174485   14.21113   11.01566    .197399
                         360.    .049451    .022983     .34263    .302941   1.170939    .010578    .006824   21235.59   424.7118
                          0.0        0.0        0.0        1.0        0.0
   1500     .0015  11331.5297 -16564.252  5232.7222 11331.5297 -16564.252  5232.7222 381942.252 -22439.333 -359502.92        0.0
                          0.0        0.0 11334.0106 -16568.279 5234.26866 381939.485 -22434.368 -359505.12 27902.2899 -21802.548
                    -6099.742 27895.7817 -21796.974 -6098.8075 404381.586 337063.586 -741445.17 .313602945 .114473956  -.4280769
                   -.58169633  -.1813395 .763034925        0.0   21.80068   2.805268   2.174485   14.21113   11.01566    .197399
                         360.    .049451    .022983     .34263    .302941   1.170939    .010578    .006824   21235.59   424.7118
                          0.0        0.0        0.0        1.0        0.0
   2000      .002  13160.6661  -15809.49 2648.82401 13160.6661  -15809.49 2648.82401  346797.18 44802.3899 -391599.57        0.0
                          0.0        0.0 13163.6227 -15813.384  2649.7614 346793.795 44807.2448 -391601.04 28977.0069 -18463.146
                   -10513.861 28970.1563 -18458.314 -10511.842  301994.79  436401.96 -738396.75 .260743302 .180049827 -.44079313
                   -.48924203 -.30055943 .789800101        0.0   21.80068   2.805268   2.174485   14.21113   11.01566    .197399
                         360.    .049451    .022983     .34263    .302941   1.170939    .010578    .006824   21235.59   424.7118
                          0.0        0.0        0.0        1.0        0.0
   2500     .0025  14665.7431 -14665.446 -.29746125 14665.7431 -14665.446 -.29746125 303112.788 110940.941 -414053.73        0.0
                          0.0        0.0 14669.0977 -14669.109 .011159717 303108.891 110945.554 -414054.45 29338.2065  -14669.12
                   -14669.087 29331.1888 -14665.148 -14666.041 192171.847 524994.669 -717166.52 .201457642 .241195084 -.44265273
                   -.38473987 -.41237842 .797117668        0.0   21.80068   2.805268   2.174485   14.21113   11.01566    .197399
                         360.    .049451    .022983     .34263    .302941   1.170939    .010578    .006824   21235.59   424.7118
                          0.0        0.0        0.0        1.0        0.0
   3000      .003  15809.7062 -13160.292  -2649.414 15809.7062 -13160.292  -2649.414 251964.793 174347.738 -426312.53        0.0
                          0.0        0.0 15813.3743 -13163.633 -2649.7416 251960.441 174352.016 -426312.46  28977.007 -10513.891
                   -18463.116 28969.9985 -10510.878  -18459.12  77617.055 600660.268 -678277.32 .137212404 .296400848 -.43361325
                   -.27076514 -.51404398 .784807753        0.0   21.80068   2.805268   2.174485   14.21113   11.01566    .197399
                         360.    .049451    .022983     .34263    .302941   1.170939    .010578    .006824   21235.59   424.7118
                          0.0        0.0        0.0        1.0        0.0
   3500     .0035  16564.3784 -11331.087 -5233.2917 16564.3784 -11331.087 -5233.2917 194612.568 233461.524 -428074.09        0.0
                          0.0        0.0 16568.2767 -11334.026 -5234.2505 194607.888 233465.353 -428073.24 27902.3028 -6099.7757
                   -21802.527 27895.4652  -6097.795  -21797.67 -38848.957 661535.617 -622686.66 .069592887 .344306075 -.41389896
                   -.15012093 -.60305137 .753173207        0.0   21.80068   2.805268   2.174485   14.21113   11.01566    .197399
                         360.    .049451    .022983     .34263    .302941   1.170939    .010578    .006824   21235.59   424.7118
                          0.0        0.0        0.0        1.0        0.0
   4000      .004  16911.1788 -9222.8712 -7688.3077 16911.1788 -9222.8712 -7688.3077 132468.323  286826.72 -419295.04        0.0
                          0.0        0.0 16915.2093 -9225.3364 -7689.8729 132463.443 286829.997 -419293.44 26140.5457 -1535.4635
                   -24605.082   26134.05 -1534.5635 -24599.487  -154358.4 706121.763 -551763.37 .256396E-3 .383734981 -.38399138
                   -.02578373  -.6772106 .702992515        0.0   21.80068   2.805268   2.174485   14.21113   11.01566    .197399
                         360.    .049451    .022983     .34263    .302941   1.170939    .010578    .006824   21235.59   424.7118
                          0.0        0.0        0.0        1.0        0.0
   4500     .0045  16841.5762 -6887.5614 -9954.0148 16841.5762 -6887.5614 -9954.0148 67062.2844 333129.282 -400191.57        0.0
                          0.0        0.0 16845.6343 -6889.4881 -9956.1462 67057.3081 333131.936 -400189.24 23735.1224 3066.65811
                   -26801.781 23729.1375 3066.45348 -26795.591   -266067. 733320.849 -467253.85 -.06908618 .413714981  -.3446288
                    .09918974 -.73469379 .635503143        0.0   21.80068   2.805268   2.174485   14.21113   11.01566    .197399
                         360.    .049451    .022983     .34263    .302941   1.170939    .010578    .006824   21235.59   424.7118
                          0.0        0.0        0.0        1.0        0.0
   5000      .005  16357.2709 -4382.6526 -11974.618 16357.2709 -4382.6526 -11974.618 4.94235186 371229.099 -371234.04        0.0
                          0.0        0.0 16361.2641 -4383.9984 -11977.266 -.45661E-7  371231.06 -371231.06 20745.2625 7593.26733
                    -28338.53 20739.9235 7591.96562 -28331.889 -371224.16 742463.141 -371238.98 -.13672699 .433507623 -.29678063
                   .221722792 -.77408638 .552363592        0.0   21.80068   2.805268   2.174485   14.21113   11.01566    .197399
                         360.    .049451    .022983     .34263    .302941   1.170939    .010578    .006824   21235.59   424.7118
                          0.0        0.0        0.0        1.0        0.0
   5500     .0055  15470.1977 -1769.8301 -13700.368 15470.1977 -1769.8301 -13700.368 -67052.519 400188.023  -333135.5        0.0
                          0.0        0.0 15474.0262 -1770.5599 -13703.466 -67057.308 400189.244 -333131.94  17244.586 11932.9064
                   -29177.492 17240.0278 11930.5375 -29170.565 -467240.54 733323.527 -266082.99 -.20100168 .442626128 -.24162445
                   .338793986 -.79441909  .45562374        0.0   21.80068   2.805268   2.174485   14.21113   11.01566    .197399
                         360.    .049451    .022983     .34263    .302941   1.170939    .010578    .006824   21235.59   424.7118
                          0.0        0.0        0.0        1.0        0.0
   6000      .006  14202.1978 886.571528 -15088.769 14202.1978 886.571528 -15088.769 -132458.92 419292.989 -286834.06        0.0
                          0.0        0.0 14205.7638 886.476698  -15092.24 -132463.44  419293.44   -286830. 13319.2871 15978.7171
                   -29298.004 13315.6263 15975.3409 -29290.967 -551751.91 706127.053 -154375.14 -.26032665 .440845529 -.18051888
                   .447524393 -.79519039 .347665543        0.0   21.80068   2.805268   2.174485   14.21113   11.01566    .197399
                         360.    .049451    .022983     .34263    .302941   1.170939    .010578    .006824   21235.59   424.7118
                          0.0        0.0        0.0        1.0        0.0
   6500     .0065   12584.494 3521.14195 -16105.636  12584.494 3521.14195 -16105.636 -194603.75  428073.57 -233469.82        0.0
                          0.0        0.0 12587.7108 3521.68436 -16109.395 -194607.89  428073.24 -233465.35 9066.02643 19631.0795
                   -28697.106 9063.35209  19626.778  -28690.13 -622677.32 661543.389 -38866.066 -.31324174 .428209963 -.11496822
                   .545235209 -.77638148 .231147637        0.0   21.80068   2.805268   2.174485   14.21113   11.01566    .197399
                         360.    .049451    .022983     .34263    .302941   1.170939    .010578    .006824   21235.59   424.7118
                          0.0        0.0        0.0        1.0        0.0
   7000      .007  10656.9147 6069.01215 -16725.927 10656.9147 6069.01215 -16725.927 -251956.79  426313.56 -174356.77        0.0
                          0.0        0.0 10659.7066 6070.17641 -16729.883 -251960.44 426312.457 -174352.02 4589.53021 22800.0594
                    -27389.59 4587.90257  22794.939 -27382.842 -678270.35  600670.33 77600.0196 -.35844385 .405030484 -.04658664
                   .629518827 -.73845504 .108934394        0.0   21.80068   2.805268   2.174485   14.21113   11.01566    .197399
                         360.    .049451    .022983     .34263    .302941   1.170939    .010578    .006824   21235.59   424.7118
                          0.0        0.0        0.0        1.0        0.0
   7500     .0075  8466.93027 8467.44164 -16934.372 8466.93027 8467.44164 -16934.372 -303105.81 414056.294 -110950.48        0.0
                          0.0        0.0 8469.22482 8469.20066 -16938.425 -303108.89 414054.446 -110945.55 .024152409 25407.6261
                    -25407.65 -.51136441 25401.8135 -25401.302 -717162.11 525006.774 192155.333 -.39481943  .37187756 .022941869
                   .698303804 -.68234559 -.01595821        0.0   21.80068   2.805268   2.174485   14.21113   11.01566    .197399
                         360.    .049451    .022983     .34263    .302941   1.170939    .010578    .006824   21235.59   424.7118
                          0.0        0.0        0.0        1.0        0.0
   8000      .008  6068.46127 10657.3746 -16725.836 6068.46127 10657.3746 -16725.836 -346791.37 391603.589  -44812.22        0.0
                          0.0        0.0 6070.19943 10659.6872 -16729.887  -346793.8  391601.04 -44807.245 -4589.4878 27389.5739
                   -22800.086 -4588.9133 27383.2104 -22794.297 -738394.96  436415.81 301979.149 -.42147364 .329567997  .09190564
                   .749892036 -.60943447 -.14045848        0.0   21.80068   2.805268   2.174485   14.21113   11.01566    .197399
                         360.    .049451    .022983     .34263    .302941   1.170939    .010578    .006824   21235.59   424.7118
                          0.0        0.0        0.0        1.0        0.0
   8500     .0085    3520.564 12584.8896 -16105.454   3520.564 12584.8896 -16105.454 -381937.77 359508.303 22429.4639        0.0
                          0.0        0.0 3521.70954 12587.6944 -16109.404 -381939.48 359505.117 22434.3679 -9065.9849 28697.0983
                   -19631.113 -9064.3256 28690.3431 -19626.018 -741446.07 337078.839 404367.231 -.43774994 .279143462 .158606481
                   .783016764  -.5215178 -.26149942        0.0   21.80068   2.805268   2.174485   14.21113   11.01566    .197399
                         360.    .049451    .022983     .34263    .302941   1.170939    .010578    .006824   21235.59   424.7118
                          0.0        0.0        0.0        1.0        0.0
   9000      .009  885.979554 14202.5219 -15088.501 885.979554 14202.5219 -15088.501 -407679.59  318560.73 89118.8608        0.0
                          0.0        0.0  886.50075 14205.7527 -15092.253 -407680.56 318556.985  89123.572 -13319.252 29298.0062
                   -15978.754 -13316.542 29291.0234 -15974.481 -726240.32 229441.869 496798.451 -.44324682 .221845188 .221401634
                   .796860902 -.42075906 -.37610139        0.0   21.80068   2.805268   2.174485   14.21113   11.01566    .197399
                         360.    .049451    .022983     .34263    .302941   1.170939    .010578    .006824   21235.59   424.7118
                          0.0        0.0        0.0        1.0        0.0
   9500     .0095  -1770.4185 15470.4404 -13700.022 -1770.4185 15470.4404 -13700.022 -423382.99 269769.135 153613.856        0.0
                          0.0        0.0 -1770.5365 15474.0179 -13703.481 -423383.18 269764.922 153618.258 -17244.554 29177.4993
                   -11932.945 -17240.859 29170.4623 -11929.603 -693152.13 116155.278 576996.847 -.43782991 .159084576 .278745337
                   .791083557 -.30964022 -.48144425        0.0   21.80068   2.805268   2.174485   14.21113   11.01566    .197399
                         360.    .049451    .022983     .34263    .302941   1.170939    .010578    .006824   21235.59   424.7118
                          0.0        0.0        0.0        1.0        0.0
  10000       .01  -4383.2249 16357.4261 -11974.201 -4383.2249 16357.4261 -11974.201  -428661.3 214334.928 214326.368        0.0
                          0.0        0.0 -4383.9764 16361.2611 -11977.285 -428660.71 214330.353 214330.352 -20745.238 28338.5458
                   -7593.3083 -20740.651 28331.6272 -7590.9762 -642996.22 8.55955339 642987.664 -.42163228 .092406822 .329225461
                   .765826975 -.19089708  -.5749308        0.0   21.80068   2.805268   2.174485   14.21113   11.01566    .197399
                         360.    .049451    .022983     .34263    .302941   1.170939    .010578    .006824   21235.59   424.7118
                          0.0        0.0        0.0        1.0        0.0
  10500     .0105  -6888.1019 16841.6377 -9953.5358 -6888.1019 16841.6377 -9953.5358 -423384.54 153623.083 269761.453        0.0
                          0.0        0.0 -6889.4671 16845.6353 -9956.1682 -423383.18 153618.258 269764.922 -23735.102 26801.8034
                    -3066.701  -23729.74 26795.1735 -3065.4339 -577007.62 -116138.37 693145.989 -.39505237  .02345356 .371598815
                   .721713082 -.06745143 -.65426074        0.0   21.80068   2.805268   2.174485   14.21113   11.01566    .197399
                         360.    .049451    .022983     .34263    .302941   1.170939    .010578    .006824   21235.59   424.7118
                          0.0        0.0        0.0        1.0        0.0
  11000      .011    -9223.37 16911.1521 -7687.7821   -9223.37 16911.1521 -7687.7821 -407682.65 89128.5289 318554.117        0.0
                          0.0        0.0 -9225.3184 16915.2149 -7689.8964 -407680.56  89123.572 318556.985 -26140.533 24605.1113
                   1535.42203 -26134.522 24598.9342 1535.58791 -496811.17 -229425.59 726236.762  -.3587448  -.0460773 .404822104
                   .659829562 .057652759 -.71748141        0.0   21.80068   2.805268   2.174485   14.21113   11.01566    .197399
                         360.    .049451    .022983     .34263    .302941   1.170939    .010578    .006824   21235.59   424.7118
                          0.0        0.0        0.0        1.0        0.0
  11500     .0115  -11331.528 16564.2574 -5232.7292 -11331.528 16564.2574 -5232.7292 -381942.25 22439.3345  359502.92        0.0
                          0.0        0.0 -11334.013 16568.2866  -5234.274 -381939.48 22434.3679 359505.117 -27902.299 21802.5606
                   6099.73866 -27895.786 21796.9867 6098.79896 -404381.59 -337063.59 741445.175 -.31360421 -.11447334 .428077546
                   .581697295 .181339181 -.76303557        0.0   21.80068   2.805268   2.174485   14.21113   11.01566    .197399
                         360.    .049451    .022983     .34263    .302941   1.170939    .010578    .006824   21235.59   424.7118
                          0.0        0.0        0.0        1.0        0.0
  12000      .012  -13160.669 15809.4978 -2648.8283 -13160.669 15809.4978 -2648.8283 -346797.18 -44802.392 391599.568        0.0
                          0.0        0.0 -13163.624 15813.3905 -2649.7668  -346793.8 -44807.245  391601.04 -28977.014 18463.1574
                   10513.8569 -28970.167 18458.3261 10511.8411 -301994.78 -436401.96 738396.745 -.26074136  -.1800508 .440792162
                   .489241238 .300558211 -.78980036        0.0   21.80068   2.805268   2.174485   14.21113   11.01566    .197399
                         360.    .049451    .022983     .34263    .302941   1.170939    .010578    .006824   21235.59   424.7118
                          0.0        0.0        0.0        1.0        0.0
  12500     .0125  -14665.749 14665.4543 .294977479 -14665.749 14665.4543 .294977479  -303112.8 -110940.93 414053.736        0.0
                          0.0        0.0 -14669.105 14669.1178 -.01303508 -303108.89 -110945.55 414054.446 -29338.223 14669.1308
                   14669.0917 -29331.204 14665.1593 14666.0442 -192171.87 -524994.67 717166.538 -.20145809 -.24119488 .442652973
                   .384740535 .412378343 -.79711814        0.0   21.80068   2.805268   2.174485   14.21113   11.01566    .197399
                         360.    .049451    .022983     .34263    .302941   1.170939    .010578    .006824   21235.59   424.7118
                          0.0        0.0        0.0        1.0        0.0
  13000      .013  -15809.709 13160.2985 2649.41053 -15809.709 13160.2985 2649.41053 -251964.79 -174347.74 426312.527        0.0
                          0.0        0.0 -15813.384 13163.6424 2649.74137 -251960.44 -174352.02 426312.457 -28977.026  10513.901
                   18463.1251 -28970.008  10510.888 18459.1196 -77617.044 -600660.27 678277.312 -.13721448 -.29639981  .43361429
                    .27076508 .514043375   -.784808        0.0   21.80068   2.805268   2.174485   14.21113   11.01566    .197399
                         360.    .049451    .022983     .34263    .302941   1.170939    .010578    .006824   21235.59   424.7118
                          0.0        0.0        0.0        1.0        0.0
  13500     .0135  -16564.383 11331.0932 5233.28965 -16564.383 11331.0932 5233.28965 -194612.56 -233461.53 428074.087        0.0
                          0.0        0.0 -16568.283 11334.0336 5234.24967 -194607.89 -233465.35  428073.24 -27902.317 6099.78397
                    21802.533 -27895.476 6097.80356 21797.6725 38848.9708 -661535.62 622686.646 -.06959228 -.34430636 .413898642
                   .150121178 .603051537 -.75317362        0.0   21.80068   2.805268   2.174485   14.21113   11.01566    .197399
                         360.    .049451    .022983     .34263    .302941   1.170939    .010578    .006824   21235.59   424.7118
                          0.0        0.0        0.0        1.0        0.0
  14000      .014  -16911.186 9222.87829  7688.3077 -16911.186 9222.87829  7688.3077 -132468.32 -286826.72 419295.044        0.0
                          0.0        0.0 -16915.217 9225.34353 7689.87332 -132463.44   -286830.  419293.44  -26140.56 1535.47021
                   24605.0902 -26134.064 1534.57059 24599.4937 154358.396 -706121.76 551763.368 -.25612E-3 -.38373513 .383991248
                   .025783811 .677210909  -.7029929        0.0   21.80068   2.805268   2.174485   14.21113   11.01566    .197399
                         360.    .049451    .022983     .34263    .302941   1.170939    .010578    .006824   21235.59   424.7118
                          0.0        0.0        0.0        1.0        0.0
  14500     .0145   -16841.58 6887.56572 9954.01385  -16841.58 6887.56572 9954.01385 -67062.281 -333129.28 400191.565        0.0
                          0.0        0.0 -16845.643 6889.49531 9956.14791 -67057.308 -333131.94 400189.244 -23735.139 -3066.6526
                   26801.7911 -23729.145 -3066.4481 26795.5934 266067.002 -733320.85 467253.846 .069086208   -.413715 .344628793
                   -.09918955 .734694066 -.63550361        0.0   21.80068   2.805268   2.174485   14.21113   11.01566    .197399
                         360.    .049451    .022983     .34263    .302941   1.170939    .010578    .006824   21235.59   424.7118
                          0.0        0.0        0.0        1.0        0.0
  % % % % % %   Suspended simulation;  plot data space exhausted;  SPY SPACE is required.   LIMBUF =  840000.
  % % % % % %   Suspended simulation;  plot data space exhausted;  SPY SPACE is required.   LIMBUF =  840000.
  +++  Time-sharing disabled.   Send  user-keyed interrupt to silence alarm.
   Current values.  INDBUF  INDBEG  LIMBUF  MFLUSH  NUMDCD  KCARD1  KCARD2
                    839994      50  840000    1000     230       1     231
Plot timespan now in memory (in sec) = 0.00000000E+00   1.49990000E-02
   ++++  Begin plot-data copy from memory to disk.   MFLUSH, INDBUF, N4, Tbeg,  Tend = 1001  839994       1  -1.00000E+00
1.00000E+19
  15000      .015  -16357.278 4382.65805 11974.6197 -16357.278 4382.65805 11974.6197 -4.9416449  -371229.1 371234.041        0.0
                          0.0        0.0 -16361.274 4384.00519 11977.2687 -.61533E-6 -371231.06  371231.06 -20745.279 -7593.2635
                   28338.5426 -20739.936 -7591.9617 28331.8975 371224.158 -742463.14 371238.983 .136727225 -.43350773 .296780509
                    -.2217226 .774086661 -.55236406        0.0   21.80068   2.805268   2.174485   14.21113   11.01566    .197399
                         360.    .049451    .022983     .34263    .302941   1.170939    .010578    .006824   21235.59   424.7118
                          0.0        0.0        0.0        1.0        0.0
  15500     .0155  -15470.208 1769.83634 13700.3714 -15470.208 1769.83634 13700.3714 67052.5201 -400188.02 333135.503        0.0
                          0.0        0.0 -15474.035  1770.5652 13703.4694 67057.3081 -400189.24 333131.936   -17244.6 -11932.904
                   29177.5039 -17240.044 -11930.535 29170.5792 467240.543 -733323.53 266082.983 .201001727 -.44262615 .241624427
                   -.33879385  .79441941 -.45562419        0.0   21.80068   2.805268   2.174485   14.21113   11.01566    .197399
                         360.    .049451    .022983     .34263    .302941   1.170939    .010578    .006824   21235.59   424.7118
                          0.0        0.0        0.0        1.0        0.0
  16000      .016  -14202.207 -886.56635 15088.7738 -14202.207 -886.56635 15088.7738 132458.925 -419292.99 286834.064        0.0
                          0.0        0.0 -14205.775 -886.47092 15092.2456 132463.443 -419293.44 286829.997 -13319.304 -15978.716
                   29298.0202 -13315.641  -15975.34 29290.9812 551751.915 -706127.05 154375.139 .260326994 -.44084571 .180518713
                   -.44752462 .795190786 -.34766582        0.0   21.80068   2.805268   2.174485   14.21113   11.01566    .197399
                         360.    .049451    .022983     .34263    .302941   1.170939    .010578    .006824   21235.59   424.7118
                          0.0        0.0        0.0        1.0        0.0
  16500     .0165  -12584.502 -3521.1385 16105.6406 -12584.502 -3521.1385 16105.6406 194603.752 -428073.57 233469.818        0.0
                          0.0        0.0 -12587.721 -3521.6796 16109.4008 194607.888 -428073.24 233465.353 -9066.0416  -19631.08
                    28697.122 -9063.3636 -19626.779 28690.1427 622677.322 -661543.39 38866.0664 .313241848    -.42821 .114968157
                   -.54523508 .776381793 -.23114808        0.0   21.80068   2.805268   2.174485   14.21113   11.01566    .197399
                         360.    .049451    .022983     .34263    .302941   1.170939    .010578    .006824   21235.59   424.7118
                          0.0        0.0        0.0        1.0        0.0
  17000      .017  -10656.925 -6069.0083 16725.9334 -10656.925 -6069.0083 16725.9334  251956.79 -426313.56  174356.77        0.0
                          0.0        0.0 -10659.714 -6070.1739 16729.8884 251960.441 -426312.46 174352.016 -4589.5406 -22800.062
                   27389.6028 -4587.9168 -22794.942 27382.8586 678270.349 -600670.33  -77600.02 .358443774 -.40503043 .046586657
                   -.62951857 .738455276 -.10893489        0.0   21.80068   2.805268   2.174485   14.21113   11.01566    .197399
                         360.    .049451    .022983     .34263    .302941   1.170939    .010578    .006824   21235.59   424.7118
                          0.0        0.0        0.0        1.0        0.0
  17500     .0175  -8466.9388 -8467.4395 16934.3784 -8466.9388 -8467.4395 16934.3784 303105.814 -414056.29  110950.48        0.0
                          0.0        0.0 -8469.2317 -8469.1995 16938.4312 303108.891 -414054.45 110945.554 -.03218597 -25407.631
                   25407.6628 .500717117 -25401.818 25401.3172 717162.108 -525006.77 -192155.33 .394819814 -.37187775 -.02294206
                   -.69830234 .682346139 .015958021        0.0   21.80068   2.805268   2.174485   14.21113   11.01566    .197399
                         360.    .049451    .022983     .34263    .302941   1.170939    .010578    .006824   21235.59   424.7118
                          0.0        0.0        0.0        1.0        0.0
  18000      .018  -6068.4682 -10657.374 16725.8423 -6068.4682 -10657.374 16725.8423 346791.367 -391603.59 44812.2212        0.0
                          0.0        0.0 -6070.2084 -10659.686  16729.894 346793.795 -391601.04 44807.2448 4589.47722  -27389.58
                   22800.1024 4588.90596 -27383.216 22794.3105 738394.955 -436415.81 -301979.15 .421473927 -.32956814 -.09190579
                   -.74989232 .609434955 .140458272        0.0   21.80068   2.805268   2.174485   14.21113   11.01566    .197399
                         360.    .049451    .022983     .34263    .302941   1.170939    .010578    .006824   21235.59   424.7118
                          0.0        0.0        0.0        1.0        0.0
  18500     .0185  -3520.5726 -12584.889 16105.4615 -3520.5726 -12584.889 16105.4615 381937.766  -359508.3 -22429.464        0.0
                          0.0        0.0 -3521.7168 -12587.694 16109.4112 381939.485 -359505.12 -22434.368  9065.9776 -28697.106
                    19631.128 9064.31631  -28690.35  19626.034 741446.069 -337078.84 -404367.23 .437749859 -.27914341 -.15860645
                   -.78301684 .521518148 .261499147        0.0   21.80068   2.805268   2.174485   14.21113   11.01566    .197399
                         360.    .049451    .022983     .34263    .302941   1.170939    .010578    .006824   21235.59   424.7118
                          0.0        0.0        0.0        1.0        0.0
  19000      .019  -885.98944 -14202.521 15088.5107 -885.98944 -14202.521 15088.5107 407679.591 -318560.73 -89118.861        0.0
                          0.0        0.0 -886.50768 -14205.753 15092.2612 407680.557 -318556.98 -89123.572 13319.2458 -29298.015
                   15978.7689 13316.5318 -29291.032 15974.5001 726240.321 -229441.87 -496798.45   .4432471 -.22184533 -.22140177
                   -.79686115 .420759587 .376101332        0.0   21.80068   2.805268   2.174485   14.21113   11.01566    .197399
                         360.    .049451    .022983     .34263    .302941   1.170939    .010578    .006824   21235.59   424.7118
                          0.0        0.0        0.0        1.0        0.0
  19500     .0195  1770.41129 -15470.442 13700.0303 1770.41129 -15470.442 13700.0303 423382.989 -269769.13 -153613.86        0.0
                          0.0        0.0 1770.52859 -15474.019 13703.4902  423383.18 -269764.92 -153618.26 17244.5473 -29177.509
                   11932.9616 17240.8529 -29170.472  11929.619 693152.123 -116155.28 -576996.84 .437830103 -.15908467 -.27874543
                   -.79108386 .309640734 .481444261        0.0   21.80068   2.805268   2.174485   14.21113   11.01566    .197399
                         360.    .049451    .022983     .34263    .302941   1.170939    .010578    .006824   21235.59   424.7118
                          0.0        0.0        0.0        1.0        0.0
  20000       .02  4383.21859 -16357.428 11974.2097 4383.21859 -16357.428 11974.2097 428661.294 -214334.93 -214326.37        0.0
                          0.0        0.0 4383.96986 -16361.263 11977.2933 428660.705 -214330.35 -214330.35  20745.233 -28338.556
                   7593.32343 20740.6469 -28331.638 7590.99113 642996.221  -8.559552 -642987.66 .421632064  -.0924067 -.32922537
                   -.76582709 .190897342 .574930658        0.0   21.80068   2.805268   2.174485   14.21113   11.01566    .197399
                         360.    .049451    .022983     .34263    .302941   1.170939    .010578    .006824   21235.59   424.7118
                          0.0        0.0        0.0        1.0        0.0
  20500     .0205  6888.09562  -16841.64 9953.54473 6888.09562  -16841.64 9953.54473 423384.536 -153623.08 -269761.45        0.0
                          0.0        0.0 6889.46412  -16845.64 9956.17547  423383.18 -153618.26 -269764.92 23735.1037 -26801.815
                   3066.71136  23729.736 -26795.185 3065.44911 577007.618  116138.37 -693145.99 .395052236 -.02345348 -.37159876
                   -.72171433 .067451761  .65426075        0.0   21.80068   2.805268   2.174485   14.21113   11.01566    .197399
                         360.    .049451    .022983     .34263    .302941   1.170939    .010578    .006824   21235.59   424.7118
                          0.0        0.0        0.0        1.0        0.0
  21000      .021  9223.36624 -16911.156 7687.79011 9223.36624 -16911.156 7687.79011 407682.644 -89128.528 -318554.12        0.0
                          0.0        0.0 9225.31573  -16915.22 7689.90392 407680.557 -89123.572 -318556.98 26140.5354 -24605.124
                   -1535.4118 26134.5226 -24598.946 -1535.5761 496811.173 229425.588 -726236.76 .358744981 .046077212 -.40482219
                    -.6598284  -.0576523 .717481612        0.0   21.80068   2.805268   2.174485   14.21113   11.01566    .197399
[...]
                         360.    .049451    .022983     .34263    .302941   1.170939    .010578    .006824   21235.59   424.7118
                          0.0        0.0        0.0        1.0        0.0
 113000      .113  -250993.28 -174984.97 425978.249 -250993.28 -174984.97 425978.249 -250993.28 -174984.97 425978.249        0.0
                          0.0        0.0 -251502.26  -174624.4 426126.655 -251960.44 -174352.02 426312.457 -76877.855 -600751.06
                    677628.91 -76008.302 -600963.22 676971.525 -76008.302 -600963.22 676971.525 9.02401006 -23.335158 14.3111488
                   -17.876543 7.93854267 9.93800059        0.0   21.80068   2.805268   2.174485   14.21113   11.01566    .197399
                         360.    .049451    .022983     .34263    .302941   1.170939    .010578    .006824   21235.59   424.7118
                          0.0        0.0        0.0        1.0        0.0
 113500     .1135  -194042.87 -233165.66 427208.531 -194042.87 -233165.66 427208.531 -194042.87 -233165.66 427208.531        0.0
                          0.0        0.0 -194194.94 -233170.08 427365.022 -194607.89 -233465.35  428073.24  38975.145 -660535.11
                   621559.961 39122.7974 -660374.19 621251.397 39122.7974 -660374.19 621251.397 8.45158211  -20.29203 11.8404482
                   -19.472586 6.40322136 13.0693648        0.0   21.80068   2.805268   2.174485   14.21113   11.01566    .197399
                         360.    .049451    .022983     .34263    .302941   1.170939    .010578    .006824   21235.59   424.7118
                          0.0        0.0        0.0        1.0        0.0
 114000      .114  -134137.17 -285472.82  419609.99 -134137.17 -285472.82  419609.99 -134137.17 -285472.82  419609.99        0.0
                          0.0        0.0 -133771.94 -285871.79  419643.73 -132463.44   -286830.  419293.44 152099.844 -705515.52
                   553415.673 151335.651 -705082.81 553747.159 151335.651 -705082.81 553747.159 7.69319607  -16.46649 8.77329478
                   -20.621396 4.45613809 16.1651994        0.0   21.80068   2.805268   2.174485   14.21113   11.01566    .197399
                         360.    .049451    .022983     .34263    .302941   1.170939    .010578    .006824   21235.59   424.7118
                          0.0        0.0        0.0        1.0        0.0
 114500     .1145  -67739.876 -333226.05 400965.927 -67739.876 -333226.05 400965.927 -67739.876 -333226.05 400965.927        0.0
                          0.0        0.0 -67582.986 -333410.84 400993.822 -67057.308 -333131.94 400189.244  265827.85 -734404.66
                   468576.808 265486.175 -734191.98 468705.803 265486.175 -734191.98 468705.803 8.69945569 -15.585325 6.88586951
                   -21.295525 2.14794376 19.1475813        0.0   21.80068   2.805268   2.174485   14.21113   11.01566    .197399
                         360.    .049451    .022983     .34263    .302941   1.170939    .010578    .006824   21235.59   424.7118
                          0.0        0.0        0.0        1.0        0.0
 115000      .115  2010.43052 -373197.01 371186.578 2010.43052 -373197.01 371186.578 2010.43054 -373197.01 371186.578        0.0
                          0.0        0.0 1598.25583 -372970.42 371372.167 .127058E-4 -371231.06  371231.06 374568.678 -744342.59
                   369773.911 375207.439 -744383.59 369176.148  375207.44 -744383.59 369176.148 10.1350598 -16.798439  6.6633794
                   -21.477616 -.46429529 21.9419236        0.0   21.80068   2.805268   2.174485   14.21113   11.01566    .197399
                         360.    .049451    .022983     .34263    .302941   1.170939    .010578    .006824   21235.59   424.7118
                          0.0        0.0        0.0        1.0        0.0
 115500     .1155  67742.8582 -400703.09 332960.235 67742.8582 -400703.09 332960.235 67742.8582 -400703.09 332960.235        0.0
                          0.0        0.0 67413.8031 -400601.21 333187.409 67057.3081 -400189.24 333131.936 468015.015 -733788.62
                   265773.606 468445.951 -733663.33 265217.376 468445.951 -733663.33 265217.376  10.510975 -16.718643 6.20766793
                   -21.162338 -3.3170993 24.4794958        0.0   21.80068   2.805268   2.174485   14.21113   11.01566    .197399
                         360.    .049451    .022983     .34263    .302941   1.170939    .010578    .006824   21235.59   424.7118
                          0.0        0.0        0.0        1.0        0.0
 116000      .116  130386.371 -417497.78 287111.409 130386.371 -417497.78 287111.409 130386.371 -417497.78 287111.409        0.0
                          0.0        0.0 130753.414 -417877.41 287123.993 132463.443 -419293.44 286829.997 548630.822  -705001.4
                   156370.578 547884.151 -704609.19 156725.039 547884.151 -704609.19 156725.038 9.81023065 -13.788263 3.97803288
                   -20.357341 -6.3403487 26.6976755        0.0   21.80068   2.805268   2.174485   14.21113   11.01566    .197399
                         360.    .049451    .022983     .34263    .302941   1.170939    .010578    .006824   21235.59   424.7118
                          0.0        0.0        0.0        1.0        0.0
 116500     .1165  193933.263 -427330.02 233396.753 193933.263 -427330.02 233396.753 193933.263 -427330.02 233396.753        0.0
                          0.0        0.0 194509.962  -427744.4 233234.436 194607.888 -428073.24 233465.353 622254.361 -660978.84
                    38724.474 621263.279 -660726.77 39463.4898 621263.279 -660726.77 39463.4898 8.20219726 -9.5816434  1.3794462
                   -19.082439 -9.4579218  28.540361        0.0   21.80068   2.805268   2.174485   14.21113   11.01566    .197399
                         360.    .049451    .022983     .34263    .302941   1.170939    .010578    .006824   21235.59   424.7118
                          0.0        0.0        0.0        1.0        0.0
 117000      .117  253744.788   -427792. 174047.208 253744.788   -427792. 174047.208 253744.788   -427792. 174047.208        0.0
                          0.0        0.0 253651.864 -427701.02  174049.16 251960.441 -426312.46 174352.016 681352.889 -601750.18
                   -79602.704 681536.783  -601839.2 -79697.579 681536.783  -601839.2 -79697.579 6.58973004 -7.1601905 .570460416
                   -17.369353 -12.590749 29.9601311        0.0   21.80068   2.805268   2.174485   14.21113   11.01566    .197399
                         360.    .049451    .022983     .34263    .302941   1.170939    .010578    .006824   21235.59   424.7118
                          0.0        0.0        0.0        1.0        0.0
 117500     .1175  303773.166 -415137.08 111363.911 303773.166 -415137.08 111363.911 303773.166 -415137.08 111363.911        0.0
                          0.0        0.0 303163.988 -414812.29 111648.306 303108.891 -414054.45 110945.554 717976.282  -526460.6
                   -191515.68 718910.244 -526500.99 -192409.25 718910.244 -526500.99 -192409.25 6.46195582 -7.6651566 1.20320062
                   -15.260952 -15.660403 30.9213555        0.0   21.80068   2.805268   2.174485   14.21113   11.01566    .197399
                         360.    .049451    .022983     .34263    .302941   1.170939    .010578    .006824   21235.59   424.7118
                          0.0        0.0        0.0        1.0        0.0
 118000      .118  345694.682 -391069.98 45375.2931 345694.682 -391069.98 45375.2931 345694.682 -391069.98 45375.2931        0.0
                          0.0        0.0 345603.043 -391197.23 45594.1846 346793.795 -391601.04 44807.2447  736800.27 -436791.41
                   -300008.86 736764.657 -436445.27 -300319.39 736764.657 -436445.27 -300319.39 6.92601269  -8.317177 1.39116407
                   -12.808552 -18.591889 31.4004478        0.0   21.80068   2.805268   2.174485   14.21113   11.01566    .197399
                         360.    .049451    .022983     .34263    .302941   1.170939    .010578    .006824   21235.59   424.7118
                          0.0        0.0        0.0        1.0        0.0
 118500     .1185    381809.4 -358910.12 -22899.275   381809.4 -358910.12 -22899.275   381809.4 -358910.12 -22899.275        0.0
                          0.0        0.0 382551.383 -359479.46 -23071.926 381939.485 -359505.12 -22434.368  742030.84 -336407.53
                   -405623.31 740719.525 -336010.85 -404708.68 740719.525 -336010.85 -404708.68 5.19556312 -5.7877858 .592222348
                   -10.070977 -21.314021 31.3850226        0.0   21.80068   2.805268   2.174485   14.21113   11.01566    .197399
                         360.    .049451    .022983     .34263    .302941   1.170939    .010578    .006824   21235.59   424.7118
                          0.0        0.0        0.0        1.0        0.0
 119000      .119  408433.212 -318607.52 -89825.694 408433.212 -318607.52 -89825.694 408433.212 -318607.52 -89825.694        0.0
                          0.0        0.0 409046.759 -318877.35 -90169.406 407680.557 -318556.98 -89123.572 727924.112 -228707.95
                   -499216.16  727040.73 -228781.82 -498258.91  727040.73 -228781.82 -498258.91 1.47759973 -1.3098229 -.16777723
                   -7.1157031 -23.758371  30.874045        0.0   21.80068   2.805268   2.174485   14.21113   11.01566    .197399
                         360.    .049451    .022983     .34263    .302941   1.170939    .010578    .006824   21235.59   424.7118
                          0.0        0.0        0.0        1.0        0.0
 119500     .1195  423062.777 -269851.32 -153211.46 423062.777 -269851.32 -153211.46 423062.777 -269851.32 -153211.46        0.0
                          0.0        0.0 422741.442 -269501.68 -153239.76  423383.18 -269764.92 -153618.26 692243.124 -116261.92
                    -575981.2 692914.095 -116639.86 -576274.24 692914.095 -116639.86 -576274.24 -.72336726 .684151695 .039215068
                   -4.0170832 -25.861661 29.8787438        0.0   21.80068   2.805268   2.174485   14.21113   11.01566    .197399
                         360.    .049451    .022983     .34263    .302941   1.170939    .010578    .006824   21235.59   424.7118
                          0.0        0.0        0.0        1.0        0.0
  % % % % % %   Suspended simulation;  plot data space exhausted;  SPY SPACE is required.   LIMBUF =  840000.
  % % % % % %   Suspended simulation;  plot data space exhausted;  SPY SPACE is required.   LIMBUF =  840000.
  +++  Time-sharing disabled.   Send  user-keyed interrupt to silence alarm.
   Current values.  INDBUF  INDBEG  LIMBUF  MFLUSH  NUMDCD  KCARD1  KCARD2
                    839994      50  840000    1007     230       1     231
Plot timespan now in memory (in sec) = 1.04985997E-01   1.19985000E-01
   ++++  Begin plot-data copy from memory to disk.   MFLUSH, INDBUF, N4, Tbeg,  Tend = 1008  839994       1  -1.00000E+00
1.00000E+19
 120000       .12  428547.325 -214825.43  -213721.9 428547.325 -214825.43  -213721.9 428547.325 -214825.43  -213721.9        0.0
                          0.0        0.0 427896.649 -214489.48 -213407.17 428660.705 -214330.35 -214330.35 642386.129 -1082.3099
                   -641303.82 643372.755 -1103.5343 -642269.22 643372.755 -1103.5343 -642269.22 -.52210332 -.81568085 1.33778362
                    -.8518023 -27.570887 28.4227188        0.0   21.80068   2.805268   2.174485   14.21113   11.01566    .197399
                         360.    .049451    .022983     .34263    .302941   1.170939    .010578    .006824   21235.59   424.7118
                          0.0        0.0        0.0        1.0        0.0

Extrema of output variables follow.   Order and column positioning are the same as for the preceding time-step loop output.
Variable maxima :  435036.207 433915.873  431852.23 435036.207 433915.873  431852.23 435036.207 433915.873 432314.077        0.0
                          0.0        0.0 435483.589 435345.571 432328.533 428660.705 428660.703 428660.703 760441.382 750132.946
                   793634.051 759070.324 748872.597 760472.723 759070.324 748872.597 804668.087  147.08663 348.119962  243.97479
                   18.8070206 9.75955525  36.643609        0.0   21.80068   2.805268   2.174485   14.21113   11.01566    .197399
                         360.    .049451    .022983     .34263    .302941   1.170939    .010578    .006824   21235.59   424.7118
                          0.0        0.0        0.0        1.0        0.0
Times of maxima :     .059767     .06682    .073425    .059767     .06682    .073425    .059767     .06682     .05334        0.0
                          0.0        0.0    .059835    .066889    .073357        0.0    .006667    .113333    .058532    .065033
                      .049832    .058463    .065015    .051757    .058463    .065015    .049761    .049932    .049592    .049599
                      .104935    .111637    .058184        0.0        0.0        0.0        0.0        0.0        0.0        0.0
                          0.0        0.0        0.0        0.0        0.0        0.0        0.0        0.0        0.0        0.0
                          0.0        0.0        0.0        0.0        0.0
Variable minima :  -535745.96 -433491.82 -431291.14 -535745.96 -433491.82 -431291.14 -566599.41 -433491.82 -431291.14        0.0
                          0.0        0.0 -559742.94 -433782.58 -432223.22 -428660.71  -428660.7  -428660.7 -885722.68 -745881.03
                   -750263.86 -854987.31 -745347.16 -750002.35 -895267.29 -745347.16 -750002.35 -591.57782 -120.25812 -26.904485
                   -21.986126 -34.486381 -8.1867214        0.0   21.80068   2.805268   2.174485   14.21113   11.01566    .197399
                         360.    .049451    .022983     .34263    .302941   1.170939    .010578    .006824   21235.59   424.7118
                          0.0        0.0        0.0        1.0        0.0
Times of minima :     .049775    .076549    .063141    .049775    .076549    .063141     .04976    .076549    .063141        0.0
                          0.0        0.0    .049831    .076481    .063209        .01    .016667    .103333     .04983    .075182
                      .061691    .049774    .075248    .061622    .049759    .075248    .061622    .049597     .04993    .049934
                      .054943    .061576    .108301        0.0        0.0        0.0        0.0        0.0        0.0        0.0
                          0.0        0.0        0.0        0.0        0.0        0.0        0.0        0.0        0.0        0.0
                          0.0        0.0        0.0        0.0        0.0

Blank card terminating all plot cards.            |BLANK PLOT

Memory storage figures for the preceding, now-completed data case.  -------------------------------  Present   Program
A value of  "-9999"  indicates that no figure is available.         28-Feb-22  19:54:28              figure     limit  (name)
     Size List 1.   Number of electric network nodes.                                                   37      6000  (LBUS)
     Size List 2.   Number of electric network branches.                                                39     10000  (LBRNCH)
     Size List 3.   Number of data values in R, L, C tables.                                            45    192000  (LDATA)
     Size List 4.   Number of electric network sources.                                                  3       900  (LEXCT)
     Size List 5.   Storage for [Y] and triangularized [Y].   No. times =    3     Factors =    66     189    420000  (LYMAT)
     Size List 6.   Number of entries in switch table.                  No. flops = 18                  21      1200  (LSWTCH)
     Size List 7.   Number of distinct ALPHANUMERIC data names plus program SPY variables.              25     15000  (LSIZE7)
     Size List 8.   History points of distributed lines.                                               253    120000  (LPAST)
     Size List 9.   Number of nonlinear elements.                                                        0      2250  (LNONL)
     Size List 10.  Points of nonlinear characteristics.                                                 0      3800  (LCHAR)
     Size List 11.  Number of Type-59 S.M. outputs.                                                      0       720  (LSMOUT)
     Size List 12.  Total number of EMTP output variables.                                              55      2000  (LSIZ12)
     Size List 13.  Working space for batch/SPY plotting.                                            -9999     72800  (LSIZ13)
     Size List 14.  S.M./U.M. connections to TACS.                                                   -9999       510  (LBSTAC)
     Size List 15.  Character storage in bytes for MODELS.                                            3298     90000  (LCTACS)
     Size List 16.  Total number of Type-59 S.M. masses.                                                 0       800  (LIMASS)
     Size List 17.  Number of Type-59 Synchronous machines.                                              0        90  (LSYN)
     Size List 18.  Branch and switch power/energy outputs.                                              0       254  (MAXPE)
     Size List 19.  Total floating-point TACS table space.                                              23    120000  (LTACST)
     Size List 20.  Non-copied recursive convolution data.                                               0    100000  (LFSEM)
     Size List 21.  Total modal/phase [T] matrix storage.                                                9      3000  (LFD)
     Size List 22.  Total recursive convolution history.                                                 0     15000  (LHIST)
     Size List 23.  Giant vectors for renumbering, phasors;  also extrema accumulation.                  93    192000  (LSIZ23)
     Size List 24.  Peak phases of compensation for data.                                                0       120  (LCOMP)
     Size List 25.  Total table space for all U.M usage.                                             -9999     45000  (LSPCUM)
     Size List 26.  Square of max number of coupled phases.                                              9    260000  (LSIZ26)
     Size List 27.  Maximum number of MODELS top variables.                                             44       600  (LSIZ27)
     Size List 28.  MODELS.  Total work space is divided into INTEGER and REAL.  1st, REAL:           1780    210000  (LRTACS)
                             Second  and last,  statistics for INTEGER work space.                    6838         0  (LITACS)
     Size List 29.  RAM disk used by "TAPSAV" table saving (limit is "LABCOM" size LTLABL).          -9999       600  (LSIZ29)
     Size List 30.  Taku Noda frequency-dependent circuits.                                              0        19  (LSIZ30)
Timing figures characterizing central processor (CP) solution speed.  ----------------------------   CP sec  Wait sec  Real sec
     Data input time (through blank card ending branches) ....                                       0.016     0.000     0.016
     Node renumbering and phasor solution  ....                                                      0.031     0.000     0.031
     After phasor solution, but before time-step loop  ....                                          0.000     0.000     0.000
     Integration of equations (time-step loop)  ....                                                 0.969     0.000     0.969
     Plotting or STATISTICS termination overlays ....                                                0.000     0.000     0.000
                                                                                                    ---------------------------
                                                                                          Totals      1.016     0.000     1.016

