   ---   236   cards of disk file read into card cache cells  1   onward.
 Comment card is ignored.      |C   LBUS  LBRNCH   LDATA   LEXCT   LYMAT  LSWTCH
 Limit CIDEAL cards =   200    |CARDS        200 { Limit of CIDEAL will be 2 mor
 1st card (Lists  1-10).       |    6000   10000  192000     900  420000    120
 Comment card is ignored.      |C LSMOUT  LSIZ12  LSIZ13  LBSTAC  LCTACS  LIMASS
 2nd card (Lists 11-20).       |     720    2000   72800     510   90000     80
 Comment card is ignored.      |C    LFD   LHIST  LSIZ23   NCOMP  LSPCUM  LSIZ26
 3rd card (Lists 21-30).       |    3000   15000  192000     120   45000  26000
 4th card (Lists 31-32).       |     200     300     { Optional card for Lists
 Comment card is ignored.      |C  LWORK  LMARTI
 Supplemental offsets.         |  840000     742
 <===> Done with  "/"-card sorting by data class.    Remember that the source file appears different from interpreted input data.
Alternative Transients Program (ATP),  GNU Linux or DOS.  All rights reserved by Can/Am user group of Portland, Oregon, USA.
 Date (dd-mth-yy) and time of day (hh.mm.ss) = 28-Feb-22  19:58:51   Name of disk plot file is  p\bdfinalisima\energizacion2183.pl4
Consult the 860-page ATP Rule Book of the Can/Am EMTP User Group in Portland,  Oregon, USA.  Source code date is 12 August 2008.
Total size of LABCOM tables = 10913436 INTEGER words.  31 VARDIM  List Sizes follow:  6002  10K  192K  900  420K  1200  15K
  120K  2250  3800  720  2K  72800  510  90K  800  90  254  120K  100K  3K  15K  192K  120  45K  260K  600  210K  1100  60  200
--------------------------------------------------+--------------------------------------------------------------------------------
Descriptive interpretation of input data cards.   |  Input data card images are shown below, all 80 columns, character by character
                                                  0         1         2         3         4         5         6         7         8
                                                  012345678901234567890123456789012345678901234567890123456789012345678901234567890
--------------------------------------------------+--------------------------------------------------------------------------------
Comment card.   NUMDCD = 1.                       |C data:D:\ATP\BDFINALISIMA\ENERGIZACION2183.ATP
Marker card preceding new EMTP data case.         |BEGIN NEW DATA CASE
Comment card.   NUMDCD = 3.                       |C --------------------------------------------------------
Comment card.   NUMDCD = 4.                       |C Generated by ATPDRAW  febrero, lunes 28, 2022
Comment card.   NUMDCD = 5.                       |C A Bonneville Power Administration program
Comment card.   NUMDCD = 6.                       |C by H. K. Høidalen at SEfAS/NTNU - NORWAY 1994-2016
Comment card.   NUMDCD = 7.                       |C --------------------------------------------------------
Comment card.   NUMDCD = 8.                       |C  dT  >< Tmax >< Xopt >< Copt ><Epsiln>
Misc. data.     1.000E-06   1.200E-01   5.000E+01 |   1.E-6     .12     50.
Misc. data.    500    1  0  1  1  0  0  0  0  0   |     500       1       0       1       1       0       0       0       0
  ///  Warning.  Nonzero XOPT or COPT differs from the power frequency of  6.00000000E+01  Hz.   Did the user really want this?
No TACS data,  but MODELS data begins (next).     |MODELS
      Another ordinary MODELS data card.          |OUTPUT
      Another ordinary MODELS data card.          |  AnVol
      Another ordinary MODELS data card.          |  LONG
      Another ordinary MODELS data card.          |  R0F
      Another ordinary MODELS data card.          |  R1F
      Another ordinary MODELS data card.          |  X0F
      Another ordinary MODELS data card.          |  X1F
      Another ordinary MODELS data card.          |  RDIVX
      Another ordinary MODELS data card.          |  RINSER
      Another ordinary MODELS data card.          |  CLOSE1
      Another ordinary MODELS data card.          |  RPpos
      Another ordinary MODELS data card.          |  RPcero
      Another ordinary MODELS data card.          |  LPpos
      Another ordinary MODELS data card.          |  LPcero
      Another ordinary MODELS data card.          |  CPpos
      Another ordinary MODELS data card.          |  CPcero
      Another ordinary MODELS data card.          |  Xp
      Another ordinary MODELS data card.          |  CR
      Another ordinary MODELS data card.          |  SIMET
      Another ordinary MODELS data card.          |  ENC1
      Another ordinary MODELS data card.          |  ENC2
      Another ordinary MODELS data card.          |  ENC1AS
      Another ordinary MODELS data card.          |  ENC2AS
      Another ordinary MODELS data card.          |MODEL DEFAULT
      Another ordinary MODELS data card.          |DATA AnVol,LONG,R0F,R1F,X0F,X1F,RDIVX,RINSER,CLOSE1,RPpos,RPcero,LPpos,LPcero
      Another ordinary MODELS data card.          |OUTPUT o1,o2,o3, o4, o5, o6, o7, o8, o9, o10, o11, o12, o13
      Another ordinary MODELS data card.          |VAR o1,o2,o3, o4, o5, o6, o7, o8, o9, o10, o11, o12, o13
      Another ordinary MODELS data card.          |INIT
      Another ordinary MODELS data card.          |  o1:=AnVol
      Another ordinary MODELS data card.          |  o2:=LONG
      Another ordinary MODELS data card.          |  o3:=R0F
      Another ordinary MODELS data card.          |  o4:=R1F
      Another ordinary MODELS data card.          |  o5:=X0F
      Another ordinary MODELS data card.          |  O6:=X1F
      Another ordinary MODELS data card.          |  o7:=RDIVX
      Another ordinary MODELS data card.          |  o8:=RINSER
      Another ordinary MODELS data card.          |  o9:=CLOSE1
      Another ordinary MODELS data card.          |  o10:=RPpos
      Another ordinary MODELS data card.          |  o11:=RPcero
      Another ordinary MODELS data card.          |  o12:=LPpos
      Another ordinary MODELS data card.          |  o13:=LPcero
      Another ordinary MODELS data card.          |
      Another ordinary MODELS data card.          |ENDINIT
      Another ordinary MODELS data card.          |EXEC
      Another ordinary MODELS data card.          |ENDEXEC
      Another ordinary MODELS data card.          |ENDMODEL
      Another ordinary MODELS data card.          |MODEL DEFAULT1
      Another ordinary MODELS data card.          |DATA CPpos,CPcero,Xp,CR,SIMET,ENC1,ENC2,ENC1AS,ENC2AS
      Another ordinary MODELS data card.          |OUTPUT o1, o2, o3, o4, o5, o6, o7, o8, o9
      Another ordinary MODELS data card.          |VAR o1, o2, o3, o4, o5, o6, o7, o8, o9
      Another ordinary MODELS data card.          |INIT
      Another ordinary MODELS data card.          |  o1:=CPpos
      Another ordinary MODELS data card.          |  o2:=CPcero
      Another ordinary MODELS data card.          |  o3:=Xp
      Another ordinary MODELS data card.          |  o4:=CR
      Another ordinary MODELS data card.          |  o5:=SIMET
      Another ordinary MODELS data card.          |  o6:=ENC1
      Another ordinary MODELS data card.          |  o7:=ENC2
      Another ordinary MODELS data card.          |  o8:=ENC1AS
      Another ordinary MODELS data card.          |  o9:=ENC2AS
      Another ordinary MODELS data card.          |
      Another ordinary MODELS data card.          |ENDINIT
      Another ordinary MODELS data card.          |EXEC
      Another ordinary MODELS data card.          |ENDEXEC
      Another ordinary MODELS data card.          |ENDMODEL
      Another ordinary MODELS data card.          |USE DEFAULT AS DEFAULT
      Another ordinary MODELS data card.          |DATA
      Another ordinary MODELS data card.          |  AnVol:=      0.0
      Another ordinary MODELS data card.          |  LONG:= 16.15378
      Another ordinary MODELS data card.          |  R0F:= 3.397582
      Another ordinary MODELS data card.          |  R1F:= 3.127838
      Another ordinary MODELS data card.          |  X0F:= 12.87169
      Another ordinary MODELS data card.          |  X1F:= 11.84977
      Another ordinary MODELS data card.          |  RDIVX:= 0.263958
      Another ordinary MODELS data card.          |  RINSER:=     440.
      Another ordinary MODELS data card.          |  CLOSE1:=  0.04432
      Another ordinary MODELS data card.          |  RPpos:= 0.022366
      Another ordinary MODELS data card.          |  RPcero:= 0.261248
      Another ordinary MODELS data card.          |  LPpos:= 0.290835
      Another ordinary MODELS data card.          |  LPcero:= 0.865904
      Another ordinary MODELS data card.          |OUTPUT
      Another ordinary MODELS data card.          |  AnVol:=o1
      Another ordinary MODELS data card.          |  LONG:=o2
      Another ordinary MODELS data card.          |  R0F:=o3
      Another ordinary MODELS data card.          |  R1F:=o4
      Another ordinary MODELS data card.          |  X0F:=o5
      Another ordinary MODELS data card.          |  X1F:=o6
      Another ordinary MODELS data card.          |  RDIVX:=o7
      Another ordinary MODELS data card.          |  RINSER:=o8
      Another ordinary MODELS data card.          |  CLOSE1:=o9
      Another ordinary MODELS data card.          |  RPpos:=o10
      Another ordinary MODELS data card.          |  RPcero:=o11
      Another ordinary MODELS data card.          |  LPpos:=o12
      Another ordinary MODELS data card.          |  LPcero:=o13
      Another ordinary MODELS data card.          |ENDUSE
      Another ordinary MODELS data card.          |USE DEFAULT1 AS DEF
      Another ordinary MODELS data card.          |DATA
      Another ordinary MODELS data card.          |  CPpos:= 0.009794
      Another ordinary MODELS data card.          |  CPcero:= 0.005479
      Another ordinary MODELS data card.          |  Xp:= 30954.06
      Another ordinary MODELS data card.          |  CR:= 619.0813
      Another ordinary MODELS data card.          |  SIMET:=      0.0
      Another ordinary MODELS data card.          |  ENC1:=      0.0
      Another ordinary MODELS data card.          |  ENC2:=      0.0
      Another ordinary MODELS data card.          |  ENC1AS:=       1.
      Another ordinary MODELS data card.          |  ENC2AS:=      0.0
      Another ordinary MODELS data card.          |OUTPUT
      Another ordinary MODELS data card.          |  CPpos:=o1
      Another ordinary MODELS data card.          |  CPcero:=o2
      Another ordinary MODELS data card.          |  Xp:=o3
      Another ordinary MODELS data card.          |  CR:=o4
      Another ordinary MODELS data card.          |  SIMET:=o5
      Another ordinary MODELS data card.          |  ENC1:=o6
      Another ordinary MODELS data card.          |  ENC2:=o7
      Another ordinary MODELS data card.          |  ENC1AS:=o8
      Another ordinary MODELS data card.          |  ENC2AS:=o9
      Another ordinary MODELS data card.          |ENDUSE
      Another ordinary MODELS data card.          |RECORD
      Another ordinary MODELS data card.          |  DEFAULT.o1 AS AnVOL
      Another ordinary MODELS data card.          |  DEFAULT.o2 AS LONG
      Another ordinary MODELS data card.          |  DEFAULT.o3 AS R0F
      Another ordinary MODELS data card.          |  DEFAULT.o4 AS R1F
      Another ordinary MODELS data card.          |  DEFAULT.o5 AS X0F
      Another ordinary MODELS data card.          |  DEFAULT.o6 AS X1F
      Another ordinary MODELS data card.          |  DEFAULT.o7 AS RDIVX
      Another ordinary MODELS data card.          |  DEFAULT.o8 AS RINSER
      Another ordinary MODELS data card.          |  DEFAULT.o9 AS CLOSE1
      Another ordinary MODELS data card.          |  DEFAULT.o10 AS RPpos
      Another ordinary MODELS data card.          |  DEFAULT.o11 AS RPcero
      Another ordinary MODELS data card.          |  DEFAULT.o12 AS LPpos
      Another ordinary MODELS data card.          |  DEFAULT.o13 AS LPcero
      Another ordinary MODELS data card.          |  DEF.o1 AS CPpos
      Another ordinary MODELS data card.          |  DEF.o2 AS CPcero
      Another ordinary MODELS data card.          |  DEF.o3 AS Xp
      Another ordinary MODELS data card.          |  DEF.o4 AS CR
      Another ordinary MODELS data card.          |  DEF.o5 AS SIMET
      Another ordinary MODELS data card.          |  DEF.o6 AS ENC1
      Another ordinary MODELS data card.          |  DEF.o7 AS ENC2
      Another ordinary MODELS data card.          |  DEF.o8 AS ENC1AS
      Another ordinary MODELS data card.          |  DEF.o9 AS ENC2AS
Termination of data for Laurent Dube`s MODELS.    |ENDMODELS
Comment card.   NUMDCD = 153.                     |C        1         2         3         4         5         6         7         8
Comment card.   NUMDCD = 154.                     |C 345678901234567890123456789012345678901234567890123456789012345678901234567890
Optional blank card follows last of MODELS data.  |BLANK MODELS
Comment card.   NUMDCD = 156.                     |C < n1 >< n2 ><ref1><ref2>< R  >< L  >< C  >
Comment card.   NUMDCD = 157.                     |C < n1 >< n2 ><ref1><ref2>< R  >< A  >< B  ><Leng><><>0
1st of coupled R-L.   3.39760E+00  4.09718E-02    |51IFUENASB1A              3.397612.871685612
2nd coil. 3.128E+00 3.772E-02 0.000E+00 0.000E+00 |52IFUENBSB1B              3.127811.849765575
Zca, Zcc= 8.993E-02 1.084E-03 3.218E+00 3.880E-02 |53IFUENCSB1C
Series R-L-C.   1.000E+09  0.000E+00  0.000E+00   |  SB1A                      1.E9                                               0
Series R-L-C.   1.000E+09  0.000E+00  0.000E+00   |  SB1B                      1.E9                                               0
Series R-L-C.   1.000E+09  0.000E+00  0.000E+00   |  SB1C                      1.E9                                               0
Series R-L-C.   6.191E+02  9.853E+01  0.000E+00   |  RSNSHA                  619.0830954.                                         0
Series R-L-C.   6.191E+02  9.853E+01  0.000E+00   |  RSNSHB                  619.0830954.                                         0
Series R-L-C.   6.191E+02  9.853E+01  0.000E+00   |  RSNSHC                  619.0830954.                                         0
Series R-L-C.   1.000E+09  0.000E+00  0.000E+00   |  RSNNHA                    1.E9                                               0
Series R-L-C.   1.000E+09  0.000E+00  0.000E+00   |  RSNNHB                    1.E9                                               0
Series R-L-C.   1.000E+09  0.000E+00  0.000E+00   |  RSNNHC                    1.E9                                               0
Series R-L-C.   1.000E+09  0.000E+00  0.000E+00   |  SE2A                      1.E9                                               0
Series R-L-C.   1.000E+09  0.000E+00  0.000E+00   |  SE2B                      1.E9                                               0
Series R-L-C.   1.000E+09  0.000E+00  0.000E+00   |  SE2C                      1.E9                                               0
Series R-L-C.   2.500E+02  0.000E+00  3.000E-10   |  X0001B                    250.       .0003                                   0
Series R-L-C.   2.500E+02  0.000E+00  3.000E-10   |  X0002B                    250.       .0003                                   0
Series R-L-C.   1.000E-06  0.000E+00  0.000E+00   |  X0001ALN1A               1.E-6                                               0
Series R-L-C.   1.000E-06  0.000E+00  0.000E+00   |  SB1A  X0002A             1.E-6                                               0
Series R-L-C.   1.000E-06  0.000E+00  0.000E+00   |  X0001BLN1B               1.E-6                                               0
Series R-L-C.   1.000E-06  0.000E+00  0.000E+00   |  SB1B  X0002B             1.E-6                                               0
Series R-L-C.   1.000E-06  0.000E+00  0.000E+00   |  X0001CLN1C               1.E-6                                               0
Series R-L-C.   1.000E-06  0.000E+00  0.000E+00   |  SB1C  X0002C             1.E-6                                               0
Series R-L-C.   4.400E+02  0.000E+00  0.000E+00   |  XX0005X0002A              440.                                               0
Series R-L-C.   4.400E+02  0.000E+00  0.000E+00   |  XX0003X0002B              440.                                               0
Series R-L-C.   4.400E+02  0.000E+00  0.000E+00   |  XX0004X0002C              440.                                               0
Series R-L-C.   2.500E+02  0.000E+00  3.000E-10   |  X0001A                    250.       .0003                                   0
Series R-L-C.   1.000E+06  0.000E+00  0.000E+00   |  X0001AX0002A              1.E6                                               0
Series R-L-C.   1.000E+06  0.000E+00  0.000E+00   |  X0001BX0002B              1.E6                                               0
Series R-L-C.   1.000E+06  0.000E+00  0.000E+00   |  X0001CX0002C              1.E6                                               0
Series R-L-C.   2.500E+02  0.000E+00  3.000E-10   |  X0002C                    250.       .0003                                   0
Series R-L-C.   2.500E+02  0.000E+00  3.000E-10   |  X0002A                    250.       .0003                                   0
Series R-L-C.   2.500E+02  0.000E+00  3.000E-10   |  X0001C                    250.       .0003                                   0
Series R-L-C.   1.250E+02  0.000E+00  6.000E-10   |  X0001AX0002A              125.       .0006                                   0
Series R-L-C.   1.250E+02  0.000E+00  6.000E-10   |  X0001BX0002B              125.       .0006                                   0
Series R-L-C.   1.250E+02  0.000E+00  6.000E-10   |  X0001CX0002C              125.       .0006                                   0
 2.612E-01 8.659E-01 5.480E-03 7.092E+02 6.278E-05|-1LN1A  VFF2A             .26125 .8659.0054816.154 0 0                         0
 2.237E-02 2.908E-01 9.790E-03 3.075E+02 4.863E-05|-2LN1B  VFF2B             .02237.29084.0097916.154 0 0                         0
3rd or later transposed distributed phase.        |-3LN1C  VFF2C                                                                  0
Blank card ending branches.  IBR, NTOT = 39  31   |BLANK BRANCH
Comment card.   NUMDCD = 198.                     |C < n 1>< n 2>< Tclose ><Top/Tde ><   Ie   ><Vf/CLOP ><  type  >
Switch.  -1.00E+00  1.00E+01  0.00E+00  0.00E+00  |  LN1A  COMPA        -1.       10.                                             0
Switch.  -1.00E+00  1.00E+01  0.00E+00  0.00E+00  |  LN1B  COMPB        -1.       10.                                             0
Switch.  -1.00E+00  1.00E+01  0.00E+00  0.00E+00  |  LN1C  COMPC        -1.       10.                                             0
Switch.  -1.00E+00  1.00E+01  0.00E+00  0.00E+00  |  VFF2A RSNNHA       -1.       10.                                             0
Switch.  -1.00E+00  1.00E+01  0.00E+00  0.00E+00  |  VFF2B RSNNHB       -1.       10.                                             0
Switch.  -1.00E+00  1.00E+01  0.00E+00  0.00E+00  |  VFF2C RSNNHC       -1.       10.                                             0
Switch.   2.00E+00 -1.00E+00  0.00E+00  0.00E+00  |  VFF2A SE2A          2.       -1.                                             0
Switch.   2.00E+00 -1.00E+00  0.00E+00  0.00E+00  |  VFF2B SE2B          2.       -1.                                             0
Switch.   2.00E+00 -1.00E+00  0.00E+00  0.00E+00  |  VFF2C SE2C          2.       -1.                                             0
Switch.   4.43E-02  1.00E+03  0.00E+00  0.00E+00  |  X0001BXX0003.044319895      1.E3                                             0
Switch.   4.43E-02  1.00E+03  0.00E+00  0.00E+00  |  X0001CXX0004.044319895      1.E3                                             0
Switch.   5.18E-02  1.00E+03  0.00E+00  0.00E+00  |  XX0005X0002A.051819895      1.E3                                             0
Switch.   5.18E-02  1.00E+03  0.00E+00  0.00E+00  |  XX0003X0002B.051819895      1.E3                                             0
Switch.   5.18E-02  1.00E+03  0.00E+00  0.00E+00  |  XX0004X0002C.051819895      1.E3                                             0
Switch.   4.43E-02  1.00E+03  0.00E+00  0.00E+00  |  X0001AXX0005.044319895      1.E3                                             0
Permanently-closed switch used for metering.      |  VFUENAIFUENA                                        MEASURING                1
Permanently-closed switch used for metering.      |  VFUENBIFUENB                                        MEASURING                1
Permanently-closed switch used for metering.      |  VFUENCIFUENC                                        MEASURING                1
Permanently-closed switch used for metering.      |  COMPA RSNSHA                                        MEASURING                1
Permanently-closed switch used for metering.      |  COMPB RSNSHB                                        MEASURING                1
Permanently-closed switch used for metering.      |  COMPC RSNSHC                                        MEASURING                1
Blank card ending switches.   KSWTCH = 21.        |BLANK SWITCH
Comment card.   NUMDCD = 221.                     |C < n 1><>< Ampl.  >< Freq.  ><Phase/T0><   A1   ><   T1   >< TSTART >< TSTOP  >
Source.   4.29E+05  5.00E+01  0.00E+00 -1.00E+00  |14VFUENA  428660.705       50.                                     -1.      100.
Source.   4.29E+05  5.00E+01 -1.20E+02 -1.00E+00  |14VFUENB  428660.705       50.     -120.                           -1.      100.
Source.   4.29E+05  5.00E+01 -2.40E+02 -1.00E+00  |14VFUENC  428660.705       50.     -240.                           -1.      100.
Blank card ends electric sources.  KCONST = 3     |BLANK SOURCE
Pi-equivalent branches of distributed circuits are added to the table of List Size 3 between indices  40   and  45.

Sinusoidal steady-state phasor solution, branch by branch.   All flows are away from a bus,  and the real part,  magnitude,  or  "P"
is printed above the imaginary part,  the angle,  or  "Q".   The first solution frequency  =  5.00000000E+01  Hertz.
  Bus K                        Phasor  node  voltage              Phasor  branch  current               Power flow       Power loss
             Bus M         Rectangular            Polar          Rectangular            Polar            P  and  Q        P  and  Q

 IFUENA                    428660.705       428660.705      .41785712585038  .44182324124162      89559.465078148  .30528544166985
                                  0.0              0.0      .14353814432866       18.9581144      -30764.58107116        1.1565832

            SB1A      428661.09891984  428661.09895386      -.4178571258504  .44182324124162      -89559.15979271
                      -5.400467593002       -0.0007218      -.1435381443287     -161.0418856      30765.737654352

 IFUENB                  -214330.3525       428660.705      -.0846208835288  .44182324123823      89559.465077813  .30528544166565
                      -371231.0601341     -120.0000000      -.4336439582988     -101.0418856      -30764.58106989        1.1565832

            SB1B       -214335.226402  428661.09895386      .08462088352882  .44182324123823      -89559.15979237
                      -371228.7010449     -120.0007218      .43364395829881       78.9581144      30765.737653089

 IFUENC                  -214330.3525       428660.705      -.3332362423224  .44182324124047      89559.465078194  .30528544166916
                      371231.06013415      120.0000000      .29010581397671      138.9581144      -30764.58107026        1.1565832

            SB1C      -214325.8725178  428661.09895386      .33323624232238  .44182324124047      -89559.15979275
                      371234.10151253      119.9992782      -.2901058139767      -41.0418856       30765.73765346

 SB1A                 428661.09891984  428661.09895386      .42866109892E-3  .42866109895E-3      91.875168878166  91.875168878166
                      -5.400467593002       -0.0007218      -.5400467593E-8       -0.0007218      .5749236129E-19        0.0000000

            TERRA                 0.0              0.0      -.4286610989E-3  .42866109895E-3                  0.0
                                  0.0              0.0       .5400467593E-8      179.9992782                  0.0

 SB1B                  -214335.226402  428661.09895386      -.2143352264E-3  .42866109895E-3      91.875168878166  91.875168878166
                      -371228.7010449     -120.0007218       -.371228701E-3     -120.0007218      -.593275429E-15        0.0000000

            TERRA                 0.0              0.0       .2143352264E-3  .42866109895E-3                  0.0
                                  0.0              0.0      .37122870104E-3       59.9992782                  0.0

 SB1C                 -214325.8725178  428661.09895386      -.2143258725E-3  .42866109895E-3      91.875168878166  91.875168878166
                      371234.10151253      119.9992782      .37123410151E-3      119.9992782      .1259409244E-14        0.0000000

            TERRA                 0.0              0.0      .21432587252E-3  .42866109895E-3                  0.0
                                  0.0              0.0      -.3712341015E-3      -60.0007218                  0.0

 RSNSHA               6771.4093194361  24570.258335124      -.7583490896097  .79360812034572         194.95257872     194.95257872
                      -23618.75548126      -74.0025999      -.2339241478914     -162.8568370      9747.6289359998     9747.6289360

            TERRA                 0.0              0.0      .75834908960975  .79360812034572                  0.0
                                  0.0              0.0      .23392414789144       17.1431630                  0.0

 RSNSHB               -23840.14691236   24570.25833518      .17659029016723  .79360812034753      194.95257872088  194.95257872088
                      5945.1652504203      165.9974001      .77371165048757       77.1431630      9747.6289360442     9747.6289360

            TERRA                 0.0              0.0      -.1765902901672  .79360812034753                  0.0
                                  0.0              0.0      -.7737116504876     -102.8568370                  0.0

 RSNSHC               17068.737592605  24570.258335063      .58175879944141  .79360812034375      194.95257871903  194.95257871903
                      17673.590230808       45.9974001       -.539787502586      -42.8568370      9747.6289359514     9747.6289360

            TERRA                 0.0              0.0      -.5817587994414  .79360812034375                  0.0
                                  0.0              0.0      .53978750258601      137.1431630                  0.0

 RSNNHA               6771.9875239889  24573.126257345       .6771987524E-5  .24573126257E-4       .3019192670297   .3019192670297
                      -23621.57317018      -74.0031145      -.2362157317E-4      -74.0031145      .1090978436E-17        0.0000000

            TERRA                 0.0              0.0      -.6771987524E-5  .24573126257E-4                  0.0
                                  0.0              0.0       .2362157317E-4      105.9968855                  0.0

 RSNNHB               -23842.87620482  24573.126257401       -.238428762E-4  .24573126257E-4      .30191926703108  .30191926703108
                      5946.0733550523      165.9968855      .59460733551E-5      165.9968855      -.270372917E-17        0.0000000

            TERRA                 0.0              0.0      .23842876205E-4  .24573126257E-4                  0.0
                                  0.0              0.0      -.5946073355E-5      -14.0031145                  0.0

 RSNNHC                17070.88868052  24573.126257284      .17070888681E-4  .24573126257E-4       .3019192670282   .3019192670282
                      17675.499815103       45.9968855      .17675499815E-4       45.9968855      -.990689735E-17        0.0000000

            TERRA                 0.0              0.0      -.1707088868E-4  .24573126257E-4                  0.0
                                  0.0              0.0      -.1767549982E-4     -134.0031145                  0.0

 X0001B               -23840.14691247  24570.258335196      -.5603715648E-3  .00231569229184      .67030384881E-3  .67030384881E-3
                      5945.1652500094      165.9974001      -.0022468677086     -104.0039499      -28.44857890973      -28.4485789

            TERRA                 0.0              0.0      .56037156479E-3  .00231569229184                  0.0
                                  0.0              0.0      .00224686770858       75.9960501                  0.0

 X0002B                -214335.226402  428661.09895344      .03498700481479  .04040035676934      .20402360338622  .20402360338622
                      -371228.7010445     -120.0007218       -.020201443542      -30.0020718      -8659.030663025    -8659.0306630

            TERRA                 0.0              0.0      -.0349870048148  .04040035676934                  0.0
                                  0.0              0.0      .02020144354198      149.9979282                  0.0

 X0001A               6771.4093198513   24570.25833514       .4152143446845  .42767886652744      195.33129866141  .91454606332E-7
                      -23618.75548115      -74.0025999      .10250005288981       13.8668241      -5250.457946397        0.0000000

            LN1A      6771.4093194361  24570.258335124      -.4152143446845  .42767886652744        -195.33129857
                      -23618.75548126      -74.0025999      -.1025000528898     -166.1331759      5250.4579463971

 SB1A                 428661.09891984  428661.09895386      .41740713641047  .44139768672924      89462.713308787  .97415956191E-7
                      -5.400467593002       -0.0007218      .14353814936641       18.9770914      -30765.73751902              0.0

            X0002A    428661.09891943  428661.09895344      -.4174071364105  .44139768672924      -89462.71330869
                       -5.40046773654       -0.0007218      -.1435381493664     -161.0229086      30765.737519019

 X0001B               -23840.14691247  24570.258335196      -.1188418536913  .42767936078667      195.35955979799   .9145481783E-7
                      5945.1652500094      165.9974001      -.4108360371902     -106.1334819      -5250.462971182        0.0000000

            LN1B      -23840.14691236   24570.25833518      .11884185369126  .42767936078667      -195.3595597065
                      5945.1652504203      165.9974001      .41083603719017       73.8665181      5250.4629711822

 SB1B                  -214335.226402  428661.09895386      -.0844011083245  .44144145104095      89471.360227952  .97435275848E-7
                      -371228.7010449     -120.0007218      -.4332978278399     -101.0224929      -30769.43710975              0.0

            X0002B     -214335.226402  428661.09895344      .08440110832453  .44144145104095      -89471.36022785
                      -371228.7010445     -120.0007218      .43329782783985       78.9775071      30769.437109751

 X0001C               17068.737592309  24570.258335079      -.2963752194773  .42767968246741      195.33453197373  .91454955387E-7
                      17673.590231117       45.9974001      .30833689379506      133.8667929      -5250.467856958              0.0

            LN1C      17068.737592605  24570.258335063      .29637521947734  .42767968246741      -195.3345318823
                      17673.590230808       45.9974001      -.3083368937951      -46.1332071      5250.4678569576

 SB1C                 -214325.8725178  428661.09895386      -.3330351319164  .44144302540442       89472.99900872  .97435965074E-7
                      371234.10151253      119.9992782      .28975773602724      138.9750496      -30765.70918814              0.0

            X0002C    -214325.8725175  428661.09895344       .3330351319164  .44144302540442      -89472.99900862
                      371234.10151224      119.9992782      -.2897577360272      -41.0249504      30765.709188138

 XX0005               428661.09891943  428661.09895344                  0.0              0.0                  0.0              0.0
                       -5.40046773654       -0.0007218                  0.0              0.0                  0.0              0.0

            X0002A    428661.09891943  428661.09895344                  0.0              0.0                  0.0
                       -5.40046773654       -0.0007218                  0.0              0.0                  0.0

 XX0003                -214335.226402  428661.09895344                  0.0              0.0                  0.0              0.0
                      -371228.7010445     -120.0007218                  0.0              0.0                  0.0              0.0

            X0002B     -214335.226402  428661.09895344                  0.0              0.0                  0.0
                      -371228.7010445     -120.0007218                  0.0              0.0                  0.0

 XX0004               -214325.8725175  428661.09895344                  0.0              0.0                  0.0              0.0
                      371234.10151224      119.9992782                  0.0              0.0                  0.0              0.0

            X0002C    -214325.8725175  428661.09895344                  0.0              0.0                  0.0
                      371234.10151224      119.9992782                  0.0              0.0                  0.0

 X0001A               6771.4093198513   24570.25833514      .00222603029696  .00231569229183      .67030384881E-3  .67030384881E-3
                      -23618.75548115      -74.0025999      .63813784361E-3       15.9960501       -28.4485789096      -28.4485789

            TERRA                 0.0              0.0       -.002226030297  .00231569229183                  0.0
                                  0.0              0.0      -.6381378436E-3     -164.0039499                  0.0

 X0001A               6771.4093198513   24570.25833514      -.4218896895996  .42254999790015      -1149.534858976  89274.250362707
                      -23618.75548115      -74.0025999      -.0236133550134     -176.7964720      5062.2025554416        0.0000000

            X0002A    428661.09891943  428661.09895344      .42188968959957  .42254999790015      90423.785221684
                       -5.40046773654       -0.0007218      .02361335501342        3.2035280      -5062.202555442

 X0001B               -23840.14691247  24570.258335196      .19049507948949  .42254999789997      -1149.534859014  89274.250362631
                      5945.1652500094      165.9974001      .37717386629452       63.2035280       5062.202555443        0.0000000

            X0002B     -214335.226402  428661.09895344      -.1904950794895  .42254999789997      90423.785221645
                      -371228.7010445     -120.0007218      -.3771738662945     -116.7964720      -5062.202555443

 X0001C               17068.737592309  24570.258335079      .23139461010977  .42254999789992      -1149.534859024  89274.250362613
                      17673.590231117       45.9974001      -.3535605112811      -56.7964720      5062.2025554146        0.0000000

            X0002C    -214325.8725175  428661.09895344      -.2313946101098  .42254999789992      90423.785221637
                      371234.10151224      119.9992782      .35356051128113      123.2035280      -5062.202555415

 X0002C               -214325.8725175  428661.09895344      -.0349884657079  .04040035676934      .20402360338692  .20402360338692
                      371234.10151224      119.9992782       -.020198913201     -150.0020718      -8659.030663025    -8659.0306630

            TERRA                 0.0              0.0      .03498846570787  .04040035676934                  0.0
                                  0.0              0.0      .02019891320095       29.9979282                  0.0

 X0002A               428661.09891943  428661.09895344      .14608930726E-5  .04040035676934      .20402360338626  .20402360338626
                       -5.40046773654       -0.0007218      .04040035674293       89.9979282      -8659.030663025    -8659.0306630

            TERRA                 0.0              0.0      -.1460893073E-5  .04040035676934                  0.0
                                  0.0              0.0      -.0404003567429      -90.0020718                  0.0

 X0001C               17068.737592309  24570.258335079      -.0016656587322  .00231569229183       .6703038488E-3   .6703038488E-3
                      17673.590231117       45.9974001      .00160872986494      135.9960501      -28.44857890946      -28.4485789

            TERRA                 0.0              0.0      .00166565873217  .00231569229183                  0.0
                                  0.0              0.0      -.0016087298649      -44.0039499                  0.0

 X0001A               6771.4093198513   24570.25833514      .00444913880778  .07964879812854      954.19759556536  .39649569020763
                      -23618.75548115      -74.0025999      -.0795244377986      -86.7978220      216.70469883145   -16827.7997363

            X0002A    428661.09891943  428661.09895344      -.0044491388078  .07964879812854      -953.8010998751
                       -5.40046773654       -0.0007218      .07952443779864       93.2021780      -17044.50443514

 X0001B               -23840.14691247  24570.258335196      -.0710947527592  .07964879812851      954.19759556561  .39649569020747
                      5945.1652500094      165.9974001       .0359091516668      153.2021780      216.70469883851   -16827.7997363

            X0002B     -214335.226402  428661.09895344      .07109475275916  .07964879812851      -953.8010998754
                      -371228.7010445     -120.0007218      -.0359091516668      -26.7978220      -17044.50443513

 X0001C               17068.737592309  24570.258335079      .06664561395138   .0796487981285      954.19759556027  .39649569020622
                      17673.590231117       45.9974001      .04361528613178       33.2021780      216.70469884052   -16827.7997363

            X0002C    -214325.8725175  428661.09895344      -.0666456139514   .0796487981285      -953.8010998701
                      371234.10151224      119.9992782      -.0436152861318     -146.7978220      -17044.50443513

 LN1A                 6771.4093194361  24570.258335124      1.1735640339243  1.2208327167115      .40290684791121  .10098758402932
                      -23618.75548126      -74.0025999      .33642232457507       15.9958610      -14998.08761138   -14998.0876114

            VFF2A     6771.9875239889  24573.126257345      -.6771986528E-5  .24573126001E-4      -.3019192638819
                      -23621.57317018      -74.0031145      .23621573189E-4      105.9968832      -.1182352281E-7

 LN1B                 -23840.14691236   24570.25833518       -.295431737475  1.2208327167129      .40290688590316  .10098762100852
                      5945.1652504203      165.9974001      -1.184547428636     -104.0041390      -14998.08761143   -14998.0876114

            VFF2B     -23842.87620482  24573.126257401      .23842876083E-4  .24573126084E-4      -.3019192648946
                      5946.0733550523      165.9968855      -.5946073124E-5      -14.0031141      .23869490597E-8

 LN1C                 17068.737592605  24570.258335063      -.8781322964485  1.2208327167094      .40290689729497  .10098763022058
                      17673.590230808       45.9974001      .84812510405138      135.9958610      -14998.08761131   -14998.0876113

            VFF2C      17070.88868052  24573.126257284      -.1707088967E-4  .24573126261E-4      -.3019192670744
                      17675.499815103       45.9968855      -.1767549886E-4     -134.0031177      -.1690216525E-7
     Total network loss  P-loss  by summing injections =   2.687075296488E+05

Output for steady-state phasor switch currents.
      Node-K    Node-M            I-real            I-imag            I-magn          Degrees        Power            Reactive
      LN1A      COMPA        -7.58349763E-01   -2.33925134E-01    7.93609055E-01    -162.8568    1.94961940E+02    9.74764023E+03
      LN1B      COMPB         1.76587244E-01    7.73712014E-01    7.93607797E-01      77.1434    1.94989973E+02    9.74762421E+03
      LN1C      COMPC         5.81756830E-01   -5.39788138E-01    7.93607109E-01     -42.8570    1.94930152E+02    9.74761696E+03
      VFF2A     RSNNHA        6.77198639E-06   -2.36215731E-05    2.45731259E-05     -74.0031    3.01919262E-01    1.30177793E-08
      VFF2B     RSNNHB       -2.38428761E-05    5.94607263E-06    2.45731260E-05     165.9969    3.01919264E-01   -8.43644774E-09
      VFF2C     RSNNHC        1.70708896E-05    1.76754985E-05    2.45731260E-05      45.9969    3.01919263E-01    1.91722549E-08
      VFF2A     SE2A              Open              Open              Open             Open          Open              Open
      VFF2B     SE2B              Open              Open              Open             Open          Open              Open
      VFF2C     SE2C              Open              Open              Open             Open          Open              Open
      X0001B    XX0003            Open              Open              Open             Open          Open              Open
      X0001C    XX0004            Open              Open              Open             Open          Open              Open
      XX0005    X0002A            Open              Open              Open             Open          Open              Open
      XX0003    X0002B            Open              Open              Open             Open          Open              Open
      XX0004    X0002C            Open              Open              Open             Open          Open              Open
      X0001A    XX0005            Open              Open              Open             Open          Open              Open
      VFUENA    IFUENA        4.17857126E-01    1.43538144E-01    4.41823241E-01      18.9581    8.95594651E+04   -3.07645811E+04
      VFUENB    IFUENB       -8.46208835E-02   -4.33643958E-01    4.41823241E-01    -101.0419    8.95594651E+04   -3.07645811E+04
      VFUENC    IFUENC       -3.33236242E-01    2.90105814E-01    4.41823241E-01     138.9581    8.95594651E+04   -3.07645811E+04
      COMPA     RSNSHA       -7.58349763E-01   -2.33925134E-01    7.93609055E-01    -162.8568    1.94961940E+02    9.74764023E+03
      COMPB     RSNSHB        1.76587244E-01    7.73712014E-01    7.93607797E-01      77.1434    1.94989973E+02    9.74762421E+03
      COMPC     RSNSHC        5.81756830E-01   -5.39788138E-01    7.93607109E-01     -42.8570    1.94930152E+02    9.74761696E+03

Solution at nodes with known voltage.   Nodes that are shorted together by switches are shown as a group of names, with the printed
result applying to the composite group.   The entry "MVA" is  SQRT( P**2 + Q**2 )  in units of power,  while  "P.F."  is the
associated power factor.
              Node                Source  node  voltage             Injected  source  current              Injected  source  power
              name         Rectangular            Polar          Rectangular            Polar            P  and  Q    MVA and P.F.

               VFUENA
              IFUENA       428660.705       428660.705      .41785712585095   .4418232412426      89559.465078272   94696.13103822
                                  0.0              0.0         .14353814433       18.9581144      -30764.58107145        0.9457563

               VFUENB
              IFUENB     -214330.3525       428660.705      -.0846208835247  .44182324123645      89559.465077187    94696.1310369
                      -371231.0601341     -120.0000000      -.4336439582978     -101.0418856      -30764.58107054        0.9457563

               VFUENC
              IFUENC     -214330.3525       428660.705      -.3332362423218  .44182324124038      89559.465078226  94696.131037743
                      371231.06013415      120.0000000       .2901058139772      138.9581144      -30764.58107011        0.9457563

  +++  Node  "COMPC "  has no connected linear branches.  Add (to ground) the conductance  G = 1.00000000E-18  mhos.
  +++  Node  "COMPB "  has no connected linear branches.  Add (to ground) the conductance  G = 1.00000000E-18  mhos.
  +++  Node  "COMPA "  has no connected linear branches.  Add (to ground) the conductance  G = 1.00000000E-18  mhos.
Card of names for time-step loop output.          |  LN1A  LN1B  LN1C  COMPA COMPB COMPC SB1A  SB1B  SB1C  SE2A  SE2B  SE2C  VFF2A
Card of names for time-step loop output.          |  VFF2B VFF2C IFUENAIFUENBIFUENC
Card of names for time-step loop output.          |-5VFF2A VFF2B VFF2B VFF2C VFF2C VFF2A LN1A  LN1B  LN1B  LN1C  LN1C  LN1A
Card of names for time-step loop output.          |-5SB1A  SB1B  SB1B  SB1C  SB1C  SB1A
Blank card ending requests for output variables.  |BLANK OUTPUT

Column headings for the  55   EMTP output variables follow.  These are divided among the 5 possible classes as follows ....
  First  27     output variables are electric-network voltage differences (upper voltage minus lower voltage);
  Next   6     output variables are branch currents (flowing from the upper node to the lower node);
  Next   22     output variables belong to MODELS (with "MODELS" an internally-added upper name of pair).
   Step      Time      LN1A       LN1B       LN1C       COMPA      COMPB      COMPC      SB1A       SB1B       SB1C       SE2A
 

                       SE2B       SE2C       VFF2A      VFF2B      VFF2C      IFUENA     IFUENB     IFUENC     VFF2A      VFF2B
                                                                                                               VFF2B      VFF2C

                       VFF2C      LN1A       LN1B       LN1C       SB1A       SB1B       SB1C       VFUENA     VFUENB     VFUENC
                       VFF2A      LN1B       LN1C       LN1A       SB1B       SB1C       SB1A       IFUENA     IFUENB     IFUENC

                       COMPA      COMPB      COMPC      MODELS     MODELS     MODELS     MODELS     MODELS     MODELS     MODELS
                       RSNSHA     RSNSHB     RSNSHC     ANVOL      LONG       R0F        R1F        X0F        X1F        RDIVX

                       MODELS     MODELS     MODELS     MODELS     MODELS     MODELS     MODELS     MODELS     MODELS     MODELS
                       RINSER     CLOSE1     RPPOS      RPCERO     LPPOS      LPCERO     CPPOS      CPCERO     XP         CR

                       MODELS     MODELS     MODELS     MODELS     MODELS
                       SIMET      ENC1       ENC2       ENC1AS     ENC2AS
 ***      Phasor I(0) = -7.5834976E-01                     Switch  "LN1A  "  to  "COMPA "  closed in the steady-state.
 ***      Phasor I(0) =  1.7658724E-01                     Switch  "LN1B  "  to  "COMPB "  closed in the steady-state.
 ***      Phasor I(0) =  5.8175683E-01                     Switch  "LN1C  "  to  "COMPC "  closed in the steady-state.
 ***      Phasor I(0) =  6.7719864E-06                     Switch  "VFF2A "  to  "RSNNHA"  closed in the steady-state.
 ***      Phasor I(0) = -2.3842876E-05                     Switch  "VFF2B "  to  "RSNNHB"  closed in the steady-state.
 ***      Phasor I(0) =  1.7070890E-05                     Switch  "VFF2C "  to  "RSNNHC"  closed in the steady-state.
 ***      Phasor I(0) =  4.1785713E-01                     Switch  "VFUENA"  to  "IFUENA"  closed in the steady-state.
 ***      Phasor I(0) = -8.4620884E-02                     Switch  "VFUENB"  to  "IFUENB"  closed in the steady-state.
 ***      Phasor I(0) = -3.3323624E-01                     Switch  "VFUENC"  to  "IFUENC"  closed in the steady-state.
 ***      Phasor I(0) = -7.5834976E-01                     Switch  "COMPA "  to  "RSNSHA"  closed in the steady-state.
 ***      Phasor I(0) =  1.7658724E-01                     Switch  "COMPB "  to  "RSNSHB"  closed in the steady-state.
 ***      Phasor I(0) =  5.8175683E-01                     Switch  "COMPC "  to  "RSNSHC"  closed in the steady-state.
      0       0.0  6771.40932 -23840.147 17068.7376 6771.40932 -23840.147 17068.7376 428661.099 -214335.23 -214325.87        0.0
                          0.0        0.0 6771.98752 -23842.876 17070.8887 428660.705 -214330.35 -214330.35 30614.8637 -40913.765
                   10298.9012 30611.5562 -40908.885 10297.3283 642996.325 -9.3538843 -642986.97 .417857126 -.08462088 -.33323624
                   -.75834976 .176587244  .58175683        0.0   16.15378   3.397582   3.127838   12.87169   11.84977    .263958
                         440.     .04432    .022366    .261248    .290835    .865904    .009794    .005479   30954.06   619.0813
                          0.0        0.0        0.0        1.0        0.0
    500     .5E-3  10382.8256 -24476.652 14093.8267 10382.8256 -24476.652 14093.8267 423384.417 -153623.44 -269760.97        0.0
                          0.0        0.0 10383.8375 -24479.491  14095.653  423383.18 -153618.26 -269764.92 34863.3281 -38575.144
                   3711.81543  34859.478 -38570.479  3711.0011 577007.859 116137.532 -693145.39 .390262579 -.01574405 -.37451852
                    -.7124178 .053381314 .659038309        0.0   16.15378   3.397582   3.127838   12.87169   11.84977    .263958
                         440.     .04432    .022366    .261248    .290835    .865904    .009794    .005479   30954.06   619.0813
                          0.0        0.0        0.0        1.0        0.0
   1000     .1E-2  13738.5802 -24510.461 10771.8809 13738.5802 -24510.461 10771.8809 407682.598 -89128.935 -318553.66        0.0
                          0.0        0.0  13740.001 -24513.338 10773.3374 407680.557 -89123.572 -318556.98 38253.3395 -35286.676
                   -2966.6636 38249.0413 -35282.342 -2966.6994 496811.533 229424.727 -726236.26 .353052179 .053523859 -.40657604
                    -.6489462 -.07114208 .720090098        0.0   16.15378   3.397582   3.127838   12.87169   11.84977    .263958
                         440.     .04432    .022366    .261248    .290835    .865904    .009794    .005479   30954.06   619.0813
                          0.0        0.0        0.0        1.0        0.0
   1500     .0015  16756.0442 -23940.742 7184.69765 16756.0442 -23940.742 7184.69765 381942.289 -22439.783 -359502.51        0.0
                          0.0        0.0 16757.8387 -23943.587 7185.74799 381939.485 -22434.368 -359505.12 40701.4253 -31129.335
                   -9572.0907  40696.786 -31125.439 -9571.3465 404382.072 337062.724  -741444.8 .307151436 .121472118 -.42862355
                   -.56949572  -.1939152 .763409094        0.0   16.15378   3.397582   3.127838   12.87169   11.84977    .263958
                         440.     .04432    .022366    .261248    .290835    .865904    .009794    .005479   30954.06   619.0813
                          0.0        0.0        0.0        1.0        0.0
   2000      .002   19360.917 -22781.522 3420.60481  19360.917 -22781.522 3420.60481 346797.287 44801.9157  -391599.2        0.0
                          0.0        0.0  19363.041 -22784.264 3421.22295 346793.795 44807.2448 -391601.04  42147.305 -26205.487
                   -15941.818 42142.4389 -26202.127 -15940.312 301995.372 436401.119 -738396.49 .253686128 .186430194 -.44011632
                   -.47601955 -.31191118 .787931635        0.0   16.15378   3.397582   3.127838   12.87169   11.84977    .263958
                         440.     .04432    .022366    .261248    .290835    .865904    .009794    .005479   30954.06   619.0813
                          0.0        0.0        0.0        1.0        0.0
   2500     .0025  21489.0591 -21061.346 -427.71336 21489.0591 -21061.346 -427.71336 303112.989 110940.439 -414053.43        0.0
                          0.0        0.0 21491.4604 -21063.918 -427.54275 303108.891 110945.554 -414054.45 42555.3781 -20636.375
                   -21919.003 42550.4049 -20633.632 -21916.772  192172.55 524993.868 -717166.42 .193975029 .246797171  -.4407722
                   -.37082322 -.42222757  .79305267        0.0   16.15378   3.397582   3.127838   12.87169   11.84977    .263958
                         440.     .04432    .022366    .261248    .290835    .865904    .009794    .005479   30954.06   619.0813
                          0.0        0.0        0.0        1.0        0.0
   3000      .003  23088.0678 -18822.569 -4265.4984 23088.0678 -18822.569 -4265.4984 251965.041 174347.243 -426312.28        0.0
                          0.0        0.0  23090.687 -18824.908 -4265.7795 251960.441 174352.016 -426312.46 41915.5946 -14559.128
                   -27356.467 41910.6371 -14557.071 -27353.566 77617.7978 600659.527 -678277.32 .129487101 .301087628 -.43057473
                   -.25649712 -.52214928 .778645495        0.0   16.15378   3.397582   3.127838   12.87169   11.84977    .263958
                         440.     .04432    .022366    .261248    .290835    .865904    .009794    .005479   30954.06   619.0813
                          0.0        0.0        0.0        1.0        0.0
   3500     .0035  24118.5709  -16120.32 -7998.2509 24118.5709  -16120.32 -7998.2509 194612.879 233461.038 -428073.92        0.0
                          0.0        0.0 24121.3438 -16122.367 -7998.9765 194607.888 233465.353 -428073.24  40243.711 -8123.3908
                    -32120.32 40238.8909  -8122.069 -32116.822 -38848.159 661534.954 -622686.79 .061811236 .347963979 -.40977521
                    -.1358532 -.60921073 .745066656        0.0   16.15378   3.397582   3.127838   12.87169   11.84977    .263958
                         440.     .04432    .022366    .261248    .290835    .865904    .009794    .005479   30954.06   619.0813
                          0.0        0.0        0.0        1.0        0.0
   4000      .004  24555.1934 -13021.135 -11534.058 24555.1934 -13021.135 -11534.058   132468.7 286826.248 -419294.95        0.0
                          0.0        0.0 24558.0519 -13022.842  -11535.21 132463.443 286829.997 -419293.44 37580.8935 -1487.6314
                   -36093.262 37576.3284 -1487.0767 -36089.252 -154357.55 706121.196 -551763.65 -.00738703 .386272597 -.37888556
                   -.01186864 -.68127338 .693140198        0.0   16.15378   3.397582   3.127838   12.87169   11.84977    .263958
                         440.     .04432    .022366    .261248    .290835    .865904    .009794    .005479   30954.06   619.0813
                          0.0        0.0        0.0        1.0        0.0
   4500     .0045  24387.1856 -9601.3281 -14785.858 24387.1856 -9601.3281 -14785.858 67062.7041 333128.843 -400191.55        0.0
                          0.0        0.0 24390.0588 -9602.6517 -14787.407 67057.3081 333131.936 -400189.24 33992.7105 5184.75546
                   -39177.466 33988.5136 5184.52943 -39173.043 -266066.14  733320.39 -467254.25 -.07640308 .415069606 -.33866653
                   .112410309 -.73656049 .624148366        0.0   16.15378   3.397582   3.127838   12.87169   11.84977    .263958
                         440.     .04432    .022366    .261248    .290835    .865904    .009794    .005479   30954.06   619.0813
                          0.0        0.0        0.0        1.0        0.0
   5000      .005  23618.6834 -5945.1047 -17673.579 23618.6834 -5945.1047 -17673.579  5.4003145 371228.701  -371234.1        0.0
                          0.0        0.0 23621.5013 -5946.0133 -17675.488 -.45661E-7  371231.06 -371231.06 29567.5146 11729.4747
                   -41296.989 29563.7881 11728.4741 -41292.262  -371223.3 742462.803  -371239.5 -.14353814 .433646444  -.2901083
                   .233922905 -.77370972  .53978591        0.0   16.15378   3.397582   3.127838   12.87169   11.84977    .263958
                         440.     .04432    .022366    .261248    .290835    .865904    .009794    .005479   30954.06   619.0813
                          0.0        0.0        0.0        1.0        0.0
   5500     .0055  22268.6114 -2142.4947 -20126.117 22268.6114 -2142.4947 -20126.117 -67052.036 400187.676 -333135.64        0.0
                          0.0        0.0  22271.304 -2142.9654 -20128.339 -67057.308 400189.244 -333131.94 24414.2694 17985.3731
                   -42399.643 24411.1061 17983.6219 -42394.728 -467239.71 733323.316  -266083.6 -.20713854  .44154532 -.23440678
                   .349676183 -.79180861  .44213425        0.0   16.15378   3.397582   3.127838   12.87169   11.84977    .263958
                         440.     .04432    .022366    .261248    .290835    .865904    .009794    .005479   30954.06   619.0813
                          0.0        0.0        0.0        1.0        0.0
   6000      .006  20370.2119 1712.86931 -22083.081 20370.2119 1712.86931 -22083.081 -132458.43 419292.703 -286834.27        0.0
                          0.0        0.0 20372.7132  1712.8483 -22085.562 -132463.44  419293.44   -286830. 18659.8649 23798.4098
                   -42458.275 18657.3426 23795.9506 -42453.293 -551751.13 706126.977 -154375.85 -.26563872 .438572073 -.17293336
                    .45681625 -.79041002 .333594229        0.0   16.15378   3.397582   3.127838   12.87169   11.84977    .263958
                         440.     .04432    .022366    .261248    .290835    .865904    .009794    .005479   30954.06   619.0813
                          0.0        0.0        0.0        1.0        0.0
   6500     .0065  17970.2307 5526.05499 -23496.286 17970.2307 5526.05499 -23496.286 -194603.25 428073.351  -233470.1        0.0
                          0.0        0.0 17972.4788 5526.48459 -23498.963 -194607.89  428073.24 -233465.35 12445.9942  29025.448
                   -41471.442 12444.1757 29022.3407 -41466.516 -622676.61 661543.447 -38866.842 -.31759778 .424799576  -.1072018
                   .552710552  -.7695491 .216840364        0.0   16.15378   3.397582   3.127838   12.87169   11.84977    .263958
                         440.     .04432    .022366    .261248    .290835    .865904    .009794    .005479   30954.06   619.0813
                          0.0        0.0        0.0        1.0        0.0
   7000      .007  15127.7631 9203.16956 -24330.933 15127.7631 9203.16956 -24330.933  -251956.3 426313.413 -174357.11        0.0
                          0.0        0.0 15129.7029 9204.03919 -24333.742 -251960.44 426312.457 -174352.02 5925.66367 33537.7812
                   -39463.445 5924.59353 33534.1022 -39458.696 -678269.72 600670.523 77599.1931 -.36173674 .400567198 -.03883046
                   .634991695 -.72973962 .094747929        0.0   16.15378   3.397582   3.127838   12.87169   11.84977    .263958
                         440.     .04432    .022366    .261248    .290835    .865904    .009794    .005479   30954.06   619.0813
                          0.0        0.0        0.0        1.0        0.0
   7500     .0075  11912.8006 12653.6702 -24566.471 11912.8006 12653.6702 -24566.471 -303105.35 414056.224 -110950.87        0.0
                          0.0        0.0  11914.384 12654.9587 -24569.343 -303108.89 414054.446 -110945.55 -740.57469 37224.3013
                   -36483.727 -740.86958 37220.1411 -36479.272 -717161.57 525007.097 192154.478 -.39696838 .366471393 .030496984
                   .701640214 -.67196171 -.02967851        0.0   16.15378   3.397582   3.127838   12.87169   11.84977    .263958
                         440.     .04432    .022366    .261248    .290835    .865904    .009794    .005479   30954.06   619.0813
                          0.0        0.0        0.0        1.0        0.0
   8000      .008  8404.50631 15792.5945 -24197.101 8404.50631 15792.5945 -24197.101 -346790.94 391603.596 -44812.657        0.0
                          0.0        0.0  8405.6947 15794.2694 -24199.964  -346793.8  391601.04 -44807.245 -7388.5747 39994.2336
                   -32605.659 -7388.0882 39989.6953 -32601.607 -738394.54 436416.253 301978.283 -.42242548 .323351959 .099073519
                   .751011045 -.59763786   -.153375        0.0   16.15378   3.397582   3.127838   12.87169   11.84977    .263958
                         440.     .04432    .022366    .261248    .290835    .865904    .009794    .005479   30954.06   619.0813
                          0.0        0.0        0.0        1.0        0.0
   8500     .0085  4689.26623 18542.6514 -23231.918 4689.26623 18542.6514 -23231.918 -381937.38 359508.388 22428.9955        0.0
                          0.0        0.0 4690.03006 18544.6716 -23234.702 -381939.48 359505.117 22434.3679 -13854.642 41779.3732
                   -27924.732 -13853.385  41774.569 -27921.184 -741445.77 337079.393 404366.379 -.43748092 .272270464 .165210452
                   .781889742 -.50859747 -.27329409        0.0   16.15378   3.397582   3.127838   12.87169   11.84977    .263958
                         440.     .04432    .022366    .261248    .290835    .865904    .009794    .005479   30954.06   619.0813
                          0.0        0.0        0.0        1.0        0.0
   9000      .009  858.561894 20836.1253 -21694.687 858.561894 20836.1253 -21694.687 -407679.26 318560.891 89118.3715        0.0
                          0.0        0.0 858.882733 20838.4405 -21697.323 -407680.56 318556.985  89123.572 -19979.558 42535.7638
                   -22556.206 -19977.563 42530.8126 -22553.249 -726240.15  229442.52 496797.634 -.44176424 .214484853 .227279384
                   .793514987 -.40703344 -.38648052        0.0   16.15378   3.397582   3.127838   12.87169   11.84977    .263958
                         440.     .04432    .022366    .261248    .290835    .865904    .009794    .005479   30954.06   619.0813
                          0.0        0.0        0.0        1.0        0.0
   9500     .0095  -2993.2818 22616.5435 -19623.262 -2993.2818 22616.5435 -19623.262 -423382.72 269769.367 153613.357        0.0
                          0.0        0.0 -2993.4121 22619.0969 -19625.685 -423383.18 269764.922 153618.258 -25612.509 42244.7816
                   -16632.273 -25609.825 42239.8053  -16629.98 -693152.09  116156.01 576996.082 -.43516977 .151417826 .283751941
                   .785601677 -.29544949 -.49015446        0.0   16.15378   3.397582   3.127838   12.87169   11.84977    .263958
                         440.     .04432    .022366    .261248    .290835    .865904    .009794    .005479   30954.06   619.0813
                          0.0        0.0        0.0        1.0        0.0
  10000       .01  -6771.4195 23840.0661 -17068.647 -6771.4195 23840.0661 -17068.647  -428661.1 214335.227 214325.872        0.0
                          0.0        0.0 -6771.9975 23842.7947 -17070.797 -428660.71 214330.353 214330.352 -30614.792  40913.592
                     -10298.8 -30611.486 40908.7128 -10297.227 -642996.33 9.35408527 642986.971 -.41786009 .084622452 .333237634
                   .758344324 -.17658541 -.58175619        0.0   16.15378   3.397582   3.127838   12.87169   11.84977    .263958
                         440.     .04432    .022366    .261248    .290835    .865904    .009794    .005479   30954.06   619.0813
                          0.0        0.0        0.0        1.0        0.0
  10500     .0105  -10382.821 24476.5662 -14093.745 -10382.821 24476.5662 -14093.745 -423384.41 153623.441 269760.973        0.0
                          0.0        0.0 -10383.833 24479.4033 -14095.571 -423383.18 153618.258 269764.922 -34863.236 38574.9741
                   -3711.7382 -34859.387 38570.3116 -3710.9248 -577007.85 -116137.53 693145.388 -.39026121 .015743334 .374517873
                   .712414081 -.05337915 -.65903493        0.0   16.15378   3.397582   3.127838   12.87169   11.84977    .263958
                         440.     .04432    .022366    .261248    .290835    .865904    .009794    .005479   30954.06   619.0813
                          0.0        0.0        0.0        1.0        0.0
  11000      .011  -13738.561 24510.3708  -10771.81 -13738.561 24510.3708  -10771.81  -407682.6 89128.9363 318553.664        0.0
                          0.0        0.0 -13739.981 24513.2467 -10773.265 -407680.56  89123.572 318556.985 -38253.228  35286.512
                   2966.71595 -38248.932 35282.1807 2966.75087 -496811.54 -229424.73 726236.264 -.35305288 -.05352335 .406576228
                   .648940167 .071146677 -.72008684        0.0   16.15378   3.397582   3.127838   12.87169   11.84977    .263958
                         440.     .04432    .022366    .261248    .290835    .865904    .009794    .005479   30954.06   619.0813
                          0.0        0.0        0.0        1.0        0.0
  11500     .0115   -16756.01 23940.6478 -7184.6374  -16756.01 23940.6478 -7184.6374 -381942.29 22439.7815 359502.506        0.0
                          0.0        0.0 -16757.805 23943.4919 -7185.6871 -381939.48 22434.3679 359505.117 -40701.297  31129.179
                   9572.11779 -40696.658 31125.2851 9571.37305 -404382.07 -337062.72 741444.794 -.30715113 -.12147217 .428623302
                   .569491094 .193915943 -.76340613        0.0   16.15378   3.397582   3.127838   12.87169   11.84977    .263958
                         440.     .04432    .022366    .261248    .290835    .865904    .009794    .005479   30954.06   619.0813
                          0.0        0.0        0.0        1.0        0.0
  12000      .012   -19360.87 22781.4258  -3420.556  -19360.87 22781.4258  -3420.556 -346797.29 -44801.915 391599.203        0.0
                          0.0        0.0 -19362.994  22784.168 -3421.1742  -346793.8 -44807.245  391601.04 -42147.162 26205.3422
                   15941.8197 -42142.296 26201.9818 15940.3139 -301995.37 -436401.12 738396.491 -.25368638 -.18642991 .440116292
                   .476015425 .311911311  -.7879281        0.0   16.15378   3.397582   3.127838   12.87169   11.84977    .263958
                         440.     .04432    .022366    .261248    .290835    .865904    .009794    .005479   30954.06   619.0813
                          0.0        0.0        0.0        1.0        0.0
  12500     .0125  -21488.999 21061.2492 427.749586 -21488.999 21061.2492 427.749586 -303112.99 -110940.44 414053.428        0.0
                          0.0        0.0   -21491.4 21063.8219 427.578308 -303108.89 -110945.55 414054.446 -42555.222 20636.2436
                   21918.9785 -42550.248 20633.4996 21916.7484 -192172.55 -524993.87 717166.417 -.19397498  -.2467972 .440772177
                   .370819287 .422227369 -.79304853        0.0   16.15378   3.397582   3.127838   12.87169   11.84977    .263958
                         440.     .04432    .022366    .261248    .290835    .865904    .009794    .005479   30954.06   619.0813
                          0.0        0.0        0.0        1.0        0.0
  13000      .013  -23087.996 18822.4747 4265.52104 -23087.996 18822.4747 4265.52104 -251965.04 -174347.24 426312.284        0.0
                          0.0        0.0 -23090.615 18824.8141  4265.8011 -251960.44 -174352.02 426312.457 -41915.429 14559.0129
                   27356.4163  -41910.47 14556.9536 27353.5167 -77617.799 -600659.53 678277.325 -.12948733 -.30108747 .430574801
                   .256493641 .522148556 -.77864129        0.0   16.15378   3.397582   3.127838   12.87169   11.84977    .263958
                         440.     .04432    .022366    .261248    .290835    .865904    .009794    .005479   30954.06   619.0813
                          0.0        0.0        0.0        1.0        0.0
  13500     .0135  -24118.488 16120.2282 7998.25973 -24118.488 16120.2282 7998.25973 -194612.88 -233461.04 428073.916        0.0
                          0.0        0.0 -24121.261 16122.2766 7998.98447 -194607.89 -233465.35  428073.24 -40243.538 8123.29217
                   32120.2456 -40238.716  8121.9685 32116.7477 38848.1597 -661534.95 622686.795 -.06181121 -.34796399 .409775206
                   .135850027 .609209581 -.74506234        0.0   16.15378   3.397582   3.127838   12.87169   11.84977    .263958
                         440.     .04432    .022366    .261248    .290835    .865904    .009794    .005479   30954.06   619.0813
                          0.0        0.0        0.0        1.0        0.0
  14000      .014  -24555.102 13021.0483 11534.0534 -24555.102 13021.0483 11534.0534  -132468.7 -286826.25 419294.948        0.0
                          0.0        0.0  -24557.96 13022.7551  11535.205 -132463.44   -286830.  419293.44 -37580.715 1487.55006
                   36093.1651  -37576.15 1486.99486 36089.1552 154357.547  -706121.2 551763.649 .007386857 -.38627243 .378885574
                   .011865967 .681271733 -.69313588        0.0   16.15378   3.397582   3.127838   12.87169   11.84977    .263958
                         440.     .04432    .022366    .261248    .290835    .865904    .009794    .005479   30954.06   619.0813
                          0.0        0.0        0.0        1.0        0.0
  14500     .0145  -24387.086 9601.24688 14785.8392 -24387.086 9601.24688 14785.8392 -67062.704 -333128.84 400191.547        0.0
                          0.0        0.0 -24389.959 9602.57025 14787.3892 -67057.308 -333131.94 400189.244  -33992.53 -5184.8189
                   39177.3486 -33988.333 -5184.5923 39172.9252  266066.14 -733320.39 467254.251 .076403076  -.4150696 .338666523
                   -.11241255 .736558502 -.62414414        0.0   16.15378   3.397582   3.127838   12.87169   11.84977    .263958
                         440.     .04432    .022366    .261248    .290835    .865904    .009794    .005479   30954.06   619.0813
                          0.0        0.0        0.0        1.0        0.0
  % % % % % %   Suspended simulation;  plot data space exhausted;  SPY SPACE is required.   LIMBUF =  840000.
  % % % % % %   Suspended simulation;  plot data space exhausted;  SPY SPACE is required.   LIMBUF =  840000.
  +++  Time-sharing disabled.   Send  user-keyed interrupt to silence alarm.
   Current values.  INDBUF  INDBEG  LIMBUF  MFLUSH  NUMDCD  KCARD1  KCARD2
                    839994      50  840000    1000     230       1     231
Plot timespan now in memory (in sec) = 0.00000000E+00   1.49990000E-02
   ++++  Begin plot-data copy from memory to disk.   MFLUSH, INDBUF, N4, Tbeg,  Tend = 1001  839994       1  -1.00000E+00
1.00000E+19
  15000      .015  -23618.578 5945.03122 17673.5471 -23618.578 5945.03122 17673.5471 -5.4005306  -371228.7 371234.101        0.0
                          0.0        0.0 -23621.396 5945.93869 17675.4571 -.61533E-6 -371231.06  371231.06 -29567.335 -11729.518
                    41296.853  -29563.61 -11728.516 41292.1254   371223.3  -742462.8 371239.502  .14353795 -.43364636 .290108409
                    -.2339245 .773707309  -.5397819        0.0   16.15378   3.397582   3.127838   12.87169   11.84977    .263958
                         440.     .04432    .022366    .261248    .290835    .865904    .009794    .005479   30954.06   619.0813
                          0.0        0.0        0.0        1.0        0.0
  15500     .0155  -22268.502 2142.42949 20126.0721 -22268.502 2142.42949 20126.0721 67052.0358 -400187.68  333135.64        0.0
                          0.0        0.0 -22271.194  2142.8991  20128.295 67057.3081 -400189.24 333131.936 -24414.093 -17985.396
                    42399.489 -24410.931 -17983.643 42394.5736 467239.712 -733323.32 266083.605 .207138471 -.44154534 .234406866
                   -.34967729 .791805909 -.44213044        0.0   16.15378   3.397582   3.127838   12.87169   11.84977    .263958
                         440.     .04432    .022366    .261248    .290835    .865904    .009794    .005479   30954.06   619.0813
                          0.0        0.0        0.0        1.0        0.0
  16000      .016    -20370.1 -1712.9253 22083.0249   -20370.1 -1712.9253 22083.0249 132458.428  -419292.7 286834.274        0.0
                          0.0        0.0 -20372.601  -1712.905 22085.5057 132463.443 -419293.44 286829.997 -18659.696 -23798.411
                   42458.1064 -18657.174  -23795.95 42453.1245 551751.131 -706126.98 154375.846 .265638536 -.43857197 .172933439
                   -.45681674 .790407161 -.33359066        0.0   16.15378   3.397582   3.127838   12.87169   11.84977    .263958
                         440.     .04432    .022366    .261248    .290835    .865904    .009794    .005479   30954.06   619.0813
                          0.0        0.0        0.0        1.0        0.0
  16500     .0165  -17970.117 -5526.1015  23496.219 -17970.117 -5526.1015  23496.219 194603.255 -428073.35 233470.097        0.0
                          0.0        0.0 -17972.366 -5526.5311 23498.8967 194607.888 -428073.24 233465.353 -12445.835 -29025.428
                   41471.2623 -12444.016  -29022.32 41466.3365 622676.606 -661543.45 38866.8419 .317597729 -.42479953 .107201799
                   -.55271054 .769545771 -.21683705        0.0   16.15378   3.397582   3.127838   12.87169   11.84977    .263958
                         440.     .04432    .022366    .261248    .290835    .865904    .009794    .005479   30954.06   619.0813
                          0.0        0.0        0.0        1.0        0.0
  17000      .017  -15127.651 -9203.2058 24330.8569 -15127.651 -9203.2058 24330.8569 251956.303 -426313.41  174357.11        0.0
                          0.0        0.0 -15129.591 -9204.0748 24333.6657 251960.441 -426312.46 174352.016  -5925.516 -33537.741
                   39463.2565 -5924.4453 -33534.063  39458.508 678269.716 -600670.52 -77599.193 .361736593  -.4005671 .038830509
                   -.63499289 .729736081 -.09474501        0.0   16.15378   3.397582   3.127838   12.87169   11.84977    .263958
                         440.     .04432    .022366    .261248    .290835    .865904    .009794    .005479   30954.06   619.0813
                          0.0        0.0        0.0        1.0        0.0
  17500     .0175  -11912.691 -12653.696 24566.3869 -11912.691 -12653.696 24566.3869 303105.351 -414056.22 110950.873        0.0
                          0.0        0.0 -11914.275 -12654.983 24569.2579 303108.891 -414054.45 110945.554 740.707875 -37224.241
                   36483.5328 741.004249 -37220.083 36479.0783 717161.575  -525007.1 -192154.48 .396968308 -.36647141  -.0304969
                   -.70163906 .671958114 .029680945        0.0   16.15378   3.397582   3.127838   12.87169   11.84977    .263958
                         440.     .04432    .022366    .261248    .290835    .865904    .009794    .005479   30954.06   619.0813
                          0.0        0.0        0.0        1.0        0.0
  18000      .018  -8404.4016 -15792.608 24197.0097 -8404.4016 -15792.608 24197.0097 346790.939  -391603.6 44812.6568        0.0
                          0.0        0.0   -8405.59 -15794.282 24199.8722 346793.795 -391601.04 44807.2448 7388.69217 -39994.154
                   32605.4621 7388.20649 -39989.618 32601.4112 738394.536 -436416.25 -301978.28  .42242533 -.32335197 -.09907336
                   -.75100931  .59763239 .153376924        0.0   16.15378   3.397582   3.127838   12.87169   11.84977    .263958
                         440.     .04432    .022366    .261248    .290835    .865904    .009794    .005479   30954.06   619.0813
                          0.0        0.0        0.0        1.0        0.0
  18500     .0185  -4689.1676 -18542.653 23231.8205 -4689.1676 -18542.653 23231.8205 381937.384 -359508.39 -22428.995        0.0
                          0.0        0.0 -4689.9316 -18544.673 23234.6042 381939.485 -359505.12 -22434.368 13854.7411 -41779.277
                   27924.5357 13853.4854 -41774.473 27920.9881 741445.773 -337079.39 -404366.38 .437480851 -.27227053 -.16521032
                   -.78188756 .508593837 .273295542        0.0   16.15378   3.397582   3.127838   12.87169   11.84977    .263958
                         440.     .04432    .022366    .261248    .290835    .865904    .009794    .005479   30954.06   619.0813
                          0.0        0.0        0.0        1.0        0.0
  19000      .019  -858.47103 -20836.115  21694.586 -858.47103 -20836.115  21694.586 407679.262 -318560.89 -89118.371        0.0
                          0.0        0.0 -858.79173  -20838.43 21697.2222 407680.557 -318556.98 -89123.572 19979.6388 -42535.653
                   22556.0139 19977.6439 -42530.701  22553.057 726240.154 -229442.52 -496797.63 .441764141 -.21448486 -.22727928
                   -.79351232 .407029797 .386481501        0.0   16.15378   3.397582   3.127838   12.87169   11.84977    .263958
                         440.     .04432    .022366    .261248    .290835    .865904    .009794    .005479   30954.06   619.0813
                          0.0        0.0        0.0        1.0        0.0
  19500     .0195  2993.36346 -22616.522 19623.1581 2993.36346 -22616.522 19623.1581 423382.725 -269769.37 -153613.36        0.0
                          0.0        0.0 2993.49384 -22619.076 19625.5819  423383.18 -269764.92 -153618.26 25612.5696 -42244.658
                    16632.088 25609.8851  -42239.68 16629.7947 693152.092 -116156.01 -576996.08 .435169739 -.15141787 -.28375187
                   -.78559862 .295442317 .490154944        0.0   16.15378   3.397582   3.127838   12.87169   11.84977    .263958
                         440.     .04432    .022366    .261248    .290835    .865904    .009794    .005479   30954.06   619.0813
                          0.0        0.0        0.0        1.0        0.0
  20000       .02  6771.49069 -23840.033 17068.5426 6771.49069 -23840.033 17068.5426 428661.099 -214335.23 -214325.87        0.0
                          0.0        0.0 6772.06899 -23842.763 17070.6939 428660.705 -214330.35 -214330.35 30614.8319 -40913.457
                   10298.6249 30611.5239 -40908.576 10297.0519 642996.325 -9.3539023 -642986.97 .417860004 -.08462248 -.33323753
                   -.75834087 .176582013 .581756124        0.0   16.15378   3.397582   3.127838   12.87169   11.84977    .263958
                         440.     .04432    .022366    .261248    .290835    .865904    .009794    .005479   30954.06   619.0813
                          0.0        0.0        0.0        1.0        0.0
  20500     .0205  10382.8806 -24476.523 14093.6423 10382.8806 -24476.523 14093.6423 423384.414 -153623.44 -269760.97        0.0
                          0.0        0.0 10383.8925 -24479.361 14095.4683  423383.18 -153618.26 -269764.92 34863.2532 -38574.829
                   3711.57579 34859.4035 -38570.165 3710.76175 577007.855 116137.533 -693145.39 .390261169 -.01574341 -.37451776
                   -.71241032  .05337598 .659034332        0.0   16.15378   3.397582   3.127838   12.87169   11.84977    .263958
                         440.     .04432    .022366    .261248    .290835    .865904    .009794    .005479   30954.06   619.0813
                          0.0        0.0        0.0        1.0        0.0
  21000      .021  13738.6085 -24510.318 10771.7096 13738.6085 -24510.318 10771.7096   407682.6 -89128.936 -318553.66        0.0
                          0.0        0.0 13740.0291 -24513.194  10773.165 407680.557 -89123.572 -318556.98 38253.2233 -35286.359
                   -2966.8641 38248.9267 -35282.028  -2966.899 496811.537 229424.728 -726236.26 .353052811 .053523311 -.40657612
                   -.64893796 -.07114961 .720085748        0.0   16.15378   3.397582   3.127838   12.87169   11.84977    .263958
[...]
                         440.     .04432    .022366    .261248    .290835    .865904    .009794    .005479   30954.06   619.0813
                          0.0        0.0        0.0        1.0        0.0
 113000      .113  -251799.23 -174308.67 426107.895 -251799.23 -174308.67 426107.895 -251799.23 -174308.67 426107.895        0.0
                          0.0        0.0 -251938.34 -174680.23 426618.563 -251960.44 -174352.02 426312.457 -77258.111 -601298.79
                     678556.9 -77490.557 -600416.56 677907.121 -77490.557 -600416.56 677907.121 -3.1042358 -1.9107392 5.01497551
                   -19.790971 17.6936483 2.09735137        0.0   16.15378   3.397582   3.127838   12.87169   11.84977    .263958
                         440.     .04432    .022366    .261248    .290835    .865904    .009794    .005479   30954.06   619.0813
                          0.0        0.0        0.0        1.0        0.0
 113500     .1135  -194451.91 -233721.35 428173.262 -194451.91 -233721.35 428173.262 -194451.91 -233721.35 428173.262        0.0
                          0.0        0.0 -194390.16 -233324.92 427715.083 -194607.89 -233465.35  428073.24 38934.7625 -661040.01
                   622105.243 39269.4353 -661894.61 622625.175 39269.4353 -661894.61 622625.175 -2.3442771 -1.3372214 3.68149901
                   -20.862727 16.6026262 4.26010102        0.0   16.15378   3.397582   3.127838   12.87169   11.84977    .263958
                         440.     .04432    .022366    .261248    .290835    .865904    .009794    .005479   30954.06   619.0813
                          0.0        0.0        0.0        1.0        0.0
 114000      .114  -132268.27 -286777.65 419045.922 -132268.27 -286777.65 419045.922 -132268.27 -286777.65 419045.922        0.0
                          0.0        0.0 -132136.86 -286814.63 418951.489 -132463.44   -286830.  419293.44 154677.765 -705766.12
                   551088.351 154509.382 -705823.57 551314.192 154509.382 -705823.57 551314.192 -1.6688133 -.58131599 2.25012974
                   -21.627722 15.2293945 6.39829823        0.0   16.15378   3.397582   3.127838   12.87169   11.84977    .263958
                         440.     .04432    .022366    .261248    .290835    .865904    .009794    .005479   30954.06   619.0813
                          0.0        0.0        0.0        1.0        0.0
 114500     .1145  -66751.442 -333111.68 399863.125 -66751.442 -333111.68 399863.125 -66751.442 -333111.68 399863.125        0.0
                          0.0        0.0 -66830.986 -333552.72 400383.707 -67057.308 -333131.94 400189.244 266721.736 -733936.43
                   467214.693 266360.242 -732974.81 466614.566 266360.242 -732974.81 466614.566 -1.1977593 .104518682 1.09324098
                    -22.06643 13.6074918 8.45892325        0.0   16.15378   3.397582   3.127838   12.87169   11.84977    .263958
                         440.     .04432    .022366    .261248    .290835    .865904    .009794    .005479   30954.06   619.0813
                          0.0        0.0        0.0        1.0        0.0
 115000      .115  295.707873 -371461.07 371165.358 295.707873 -371461.07 371165.358 295.707871 -371461.07 371165.358        0.0
                          0.0        0.0 359.677981 -371162.02 370802.339 .127058E-4 -371231.06  371231.06 371521.695 -741964.36
                   370442.661 371756.774 -742626.42 370869.651 371756.774 -742626.42 370869.651 -.92558849 1.05381183 -.12822307
                   -22.167451 11.7763237 10.3911023        0.0   16.15378   3.397582   3.127838   12.87169   11.84977    .263958
                         440.     .04432    .022366    .261248    .290835    .865904    .009794    .005479   30954.06   619.0813
                          0.0        0.0        0.0        1.0        0.0
 115500     .1155   67318.469 -400251.49 332933.018  67318.469 -400251.49 332933.018  67318.469 -400251.49 332933.018        0.0
                          0.0        0.0 67498.0959 -400187.09 332688.993 67057.3081 -400189.24 333131.936 467685.185 -732876.08
                   265190.897 467569.956  -733184.5 265614.549 467569.956  -733184.5 265614.549 -.77784744 2.18383704 -1.4059894
                   -21.927642 9.78064083 12.1470303        0.0   16.15378   3.397582   3.127838   12.87169   11.84977    .263958
                         440.     .04432    .022366    .261248    .290835    .865904    .009794    .005479   30954.06   619.0813
                          0.0        0.0        0.0        1.0        0.0
 116000      .116  132799.158 -419292.27 286493.112 132799.158 -419292.27 286493.112 132799.158 -419292.27 286493.112        0.0
                          0.0        0.0 132763.935 -419765.88 287001.944 132463.443 -419293.44 286829.997 552529.813 -706767.82
                   154238.009 552091.429 -705785.38 153693.954 552091.429 -705785.38 153693.954 -.84510416 3.20081438 -2.3557101
                   -21.352249 7.66917898 13.6830408        0.0   16.15378   3.397582   3.127838   12.87169   11.84977    .263958
                         440.     .04432    .022366    .261248    .290835    .865904    .009794    .005479   30954.06   619.0813
                          0.0        0.0        0.0        1.0        0.0
 116500     .1165  194924.918 -428258.72 233333.798 194924.918 -428258.72 233333.798 194924.918 -428258.72 233333.798        0.0
                          0.0        0.0 194969.838 -428062.89 233093.053 194607.888 -428073.24 233465.353  623032.73 -661155.94
                   38123.2145 623183.634 -661592.51 38408.8796 623183.634 -661592.51 38408.8796 -1.1455888 4.32294941 -3.1773606
                   -20.454759 5.49354951 14.9612093        0.0   16.15378   3.397582   3.127838   12.87169   11.84977    .263958
                         440.     .04432    .022366    .261248    .290835    .865904    .009794    .005479   30954.06   619.0813
                          0.0        0.0        0.0        1.0        0.0
 117000      .117  252177.887 -426464.15 174286.261 252177.887 -426464.15 174286.261 252177.887 -426464.15 174286.261        0.0
                          0.0        0.0 252371.451 -426305.88 173934.434 251960.441 -426312.46 174352.016 678677.336 -600240.32
                   -78437.017 678642.035 -600750.41 -77891.626 678642.035 -600750.41 -77891.626  -1.572688 5.59083922 -4.0181513
                   -19.256687  3.3068725 15.9498434        0.0   16.15378   3.397582   3.127838   12.87169   11.84977    .263958
                         440.     .04432    .022366    .261248    .290835    .865904    .009794    .005479   30954.06   619.0813
                          0.0        0.0        0.0        1.0        0.0
 117500     .1175  303364.936 -414063.82 110698.889 303364.936 -414063.82 110698.889 303364.936 -414063.82 110698.889        0.0
                          0.0        0.0 303355.223 -414528.21 111172.983 303108.891 -414054.45 110945.554  717883.43 -525701.19
                   -192182.24  717428.76 -524762.71 -192666.05  717428.76 -524762.71 -192666.05 -2.1803622  6.6977687 -4.5174066
                    -17.78687 1.16265195 16.6242183        0.0   16.15378   3.397582   3.127838   12.87169   11.84977    .263958
                         440.     .04432    .022366    .261248    .290835    .865904    .009794    .005479   30954.06   619.0813
                          0.0        0.0        0.0        1.0        0.0
 118000      .118  347032.792 -391721.77 44688.9775 347032.792 -391721.77 44688.9775 347032.792 -391721.77 44688.9775        0.0
                          0.0        0.0 347039.947 -391627.26 44587.3129 346793.795 -391601.04 44807.2447 738667.208 -436214.57
                   -302452.63 738754.561 -436410.75 -302343.81 738754.561 -436410.75 -302343.81 -3.0053401 7.74545412 -4.7401142
                   -16.080854 -.88664603 16.9675148        0.0   16.15378   3.397582   3.127838   12.87169   11.84977    .263958
                         440.     .04432    .022366    .261248    .290835    .865904    .009794    .005479   30954.06   619.0813
                          0.0        0.0        0.0        1.0        0.0
 118500     .1185  382036.957 -359713.73 -22323.227 382036.957 -359713.73 -22323.227 382036.957 -359713.73 -22323.227        0.0
                          0.0        0.0 382214.228  -359473.4  -22740.83 381939.485 -359505.12 -22434.368 741687.625 -336732.57
                   -404955.06 741750.688  -337390.5 -404360.18 741750.688  -337390.5 -404360.18 -3.9183058 8.88533229 -4.9670267
                   -14.180053 -2.7911015 16.9711548        0.0   16.15378   3.397582   3.127838   12.87169   11.84977    .263958
                         440.     .04432    .022366    .261248    .290835    .865904    .009794    .005479   30954.06   619.0813
                          0.0        0.0        0.0        1.0        0.0
 119000      .119  407792.779 -318566.33 -89226.454 407792.779 -318566.33 -89226.454 407792.779 -318566.33 -89226.454        0.0
                          0.0        0.0 407794.113 -318981.29 -88812.826 407680.557 -318556.98 -89123.572 726775.401 -230168.46
                   -496606.94 726359.105 -229339.87 -497019.23 726359.105 -229339.87 -497019.23 -4.9347506    9.82781 -4.8930598
                   -12.130573 -4.5040803 16.6346677        0.0   16.15378   3.397582   3.127838   12.87169   11.84977    .263958
                         440.     .04432    .022366    .261248    .290835    .865904    .009794    .005479   30954.06   619.0813
                          0.0        0.0        0.0        1.0        0.0
 119500     .1195  423497.336 -269803.12 -153694.22 423497.336 -269803.12 -153694.22 423497.336 -269803.12 -153694.22        0.0
                          0.0        0.0 423457.581 -269803.17 -153654.42  423383.18 -269764.92 -153618.26 693260.746 -116148.75
                     -577112. 693300.455  -116108.9 -577191.55 693300.455  -116108.9 -577191.55 -6.1072307 10.5631895 -4.4559592
                   -9.9822456 -5.9838292 15.9661039        0.0   16.15378   3.397582   3.127838   12.87169   11.84977    .263958
                         440.     .04432    .022366    .261248    .290835    .865904    .009794    .005479   30954.06   619.0813
                          0.0        0.0        0.0        1.0        0.0
  % % % % % %   Suspended simulation;  plot data space exhausted;  SPY SPACE is required.   LIMBUF =  840000.
  % % % % % %   Suspended simulation;  plot data space exhausted;  SPY SPACE is required.   LIMBUF =  840000.
  +++  Time-sharing disabled.   Send  user-keyed interrupt to silence alarm.
   Current values.  INDBUF  INDBEG  LIMBUF  MFLUSH  NUMDCD  KCARD1  KCARD2
                    839994      50  840000    1007     230       1     231
Plot timespan now in memory (in sec) = 1.04985997E-01   1.19985000E-01
   ++++  Begin plot-data copy from memory to disk.   MFLUSH, INDBUF, N4, Tbeg,  Tend = 1008  839994       1  -1.00000E+00
1.00000E+19
 120000       .12  428620.152 -214563.17 -214056.98 428620.152 -214563.17 -214056.98 428620.152 -214563.17 -214056.98        0.0
                          0.0        0.0 428762.316 -214254.67 -214507.65 428660.705 -214330.35 -214330.35 643016.983 252.982539
                   -643269.97 643183.321 -506.18522 -642677.14 643183.321 -506.18518 -642677.14 -7.2965457 11.3369238 -4.0403785
                   -7.7874188 -7.1943394 14.9817874        0.0   16.15378   3.397582   3.127838   12.87169   11.84977    .263958
                         440.     .04432    .022366    .261248    .290835    .865904    .009794    .005479   30954.06   619.0813
                          0.0        0.0        0.0        1.0        0.0

Extrema of output variables follow.   Order and column positioning are the same as for the preceding time-step loop output.
Variable maxima :  431364.919 436546.214 435052.922 431364.919 436546.214 435052.922 431364.919 452389.451 435052.922        0.0
                          0.0        0.0 431837.978  436608.13 435978.814 428660.705 428660.703 428660.703 745575.326 949323.635
                   748215.831  745203.39 918007.198  747301.44  745203.39  992031.49  747301.44 66.0555812 386.683445 110.971692
                   4.98156126 21.4482041 18.4679599        0.0   16.15378   3.397582   3.127838   12.87169   11.84977    .263958
                         440.     .04432    .022366    .261248    .290835    .865904    .009794    .005479   30954.06   619.0813
                          0.0        0.0        0.0        1.0        0.0
Times of maxima :     .060095    .046713    .053165    .060095    .046713    .053165    .060095    .044543    .053165        0.0
                          0.0        0.0    .060103    .046761    .053117        0.0    .006667    .113333    .058483    .044596
                      .071726    .058529    .044639    .071773    .058529    .044543    .071773    .044418    .044428    .044685
                      .104975     .05156    .058259        0.0        0.0        0.0        0.0        0.0        0.0        0.0
                          0.0        0.0        0.0        0.0        0.0        0.0        0.0        0.0        0.0        0.0
                          0.0        0.0        0.0        0.0        0.0
Variable minima :  -430039.18 -431157.16 -496957.23 -430039.18 -431157.16 -496957.23 -430039.18 -431157.16 -539733.21        0.0
                          0.0        0.0 -430164.27 -431183.78 -517595.12 -428660.71  -428660.7  -428660.7 -744519.11 -751069.75
                    -750163.7  -743917.1 -750786.68 -749063.62 -747764.33 -750786.68 -749063.62 -41.272676 -69.794104 -452.26938
                   -26.010711 -8.3068214 -10.479264        0.0   16.15378   3.397582   3.127838   12.87169   11.84977    .263958
                         440.     .04432    .022366    .261248    .290835    .865904    .009794    .005479   30954.06   619.0813
                          0.0        0.0        0.0        1.0        0.0
Times of minima :     .070179    .056643    .044638    .070179    .056643    .044638    .070179    .056643    .044542        0.0
                          0.0        0.0    .070135    .056691    .044595        .01    .016667    .103333    .068176    .055193
                      .061647    .068172    .055145    .061649    .048311    .055145    .061649     .04468    .044686    .044427
                      .054866    .101626    .108292        0.0        0.0        0.0        0.0        0.0        0.0        0.0
                          0.0        0.0        0.0        0.0        0.0        0.0        0.0        0.0        0.0        0.0
                          0.0        0.0        0.0        0.0        0.0

Blank card terminating all plot cards.            |BLANK PLOT

Memory storage figures for the preceding, now-completed data case.  -------------------------------  Present   Program
A value of  "-9999"  indicates that no figure is available.         28-Feb-22  19:59:46              figure     limit  (name)
     Size List 1.   Number of electric network nodes.                                                   37      6000  (LBUS)
     Size List 2.   Number of electric network branches.                                                39     10000  (LBRNCH)
     Size List 3.   Number of data values in R, L, C tables.                                            45    192000  (LDATA)
     Size List 4.   Number of electric network sources.                                                  3       900  (LEXCT)
     Size List 5.   Storage for [Y] and triangularized [Y].   No. times =    3     Factors =    66     189    420000  (LYMAT)
     Size List 6.   Number of entries in switch table.                  No. flops = 18                  21      1200  (LSWTCH)
     Size List 7.   Number of distinct ALPHANUMERIC data names plus program SPY variables.              25     15000  (LSIZE7)
     Size List 8.   History points of distributed lines.                                               164    120000  (LPAST)
     Size List 9.   Number of nonlinear elements.                                                        0      2250  (LNONL)
     Size List 10.  Points of nonlinear characteristics.                                                 0      3800  (LCHAR)
     Size List 11.  Number of Type-59 S.M. outputs.                                                      0       720  (LSMOUT)
     Size List 12.  Total number of EMTP output variables.                                              55      2000  (LSIZ12)
     Size List 13.  Working space for batch/SPY plotting.                                            -9999     72800  (LSIZ13)
     Size List 14.  S.M./U.M. connections to TACS.                                                   -9999       510  (LBSTAC)
     Size List 15.  Character storage in bytes for MODELS.                                            3298     90000  (LCTACS)
     Size List 16.  Total number of Type-59 S.M. masses.                                                 0       800  (LIMASS)
     Size List 17.  Number of Type-59 Synchronous machines.                                              0        90  (LSYN)
     Size List 18.  Branch and switch power/energy outputs.                                              0       254  (MAXPE)
     Size List 19.  Total floating-point TACS table space.                                              23    120000  (LTACST)
     Size List 20.  Non-copied recursive convolution data.                                               0    100000  (LFSEM)
     Size List 21.  Total modal/phase [T] matrix storage.                                                9      3000  (LFD)
     Size List 22.  Total recursive convolution history.                                                 0     15000  (LHIST)
     Size List 23.  Giant vectors for renumbering, phasors;  also extrema accumulation.                  93    192000  (LSIZ23)
     Size List 24.  Peak phases of compensation for data.                                                0       120  (LCOMP)
     Size List 25.  Total table space for all U.M usage.                                             -9999     45000  (LSPCUM)
     Size List 26.  Square of max number of coupled phases.                                              9    260000  (LSIZ26)
     Size List 27.  Maximum number of MODELS top variables.                                             44       600  (LSIZ27)
     Size List 28.  MODELS.  Total work space is divided into INTEGER and REAL.  1st, REAL:           1780    210000  (LRTACS)
                             Second  and last,  statistics for INTEGER work space.                    6838         0  (LITACS)
     Size List 29.  RAM disk used by "TAPSAV" table saving (limit is "LABCOM" size LTLABL).          -9999       600  (LSIZ29)
     Size List 30.  Taku Noda frequency-dependent circuits.                                              0        19  (LSIZ30)
Timing figures characterizing central processor (CP) solution speed.  ----------------------------   CP sec  Wait sec  Real sec
     Data input time (through blank card ending branches) ....                                       0.031     0.000     0.031
     Node renumbering and phasor solution  ....                                                      0.031     0.000     0.031
     After phasor solution, but before time-step loop  ....                                          0.016     0.000     0.016
     Integration of equations (time-step loop)  ....                                                 1.016     0.000     1.016
     Plotting or STATISTICS termination overlays ....                                                0.000     0.000     0.000
                                                                                                    ---------------------------
                                                                                          Totals      1.094     0.000     1.094

