   ---   236   cards of disk file read into card cache cells  1   onward.
 Comment card is ignored.      |C   LBUS  LBRNCH   LDATA   LEXCT   LYMAT  LSWTCH
 Limit CIDEAL cards =   200    |CARDS        200 { Limit of CIDEAL will be 2 mor
 1st card (Lists  1-10).       |    6000   10000  192000     900  420000    120
 Comment card is ignored.      |C LSMOUT  LSIZ12  LSIZ13  LBSTAC  LCTACS  LIMASS
 2nd card (Lists 11-20).       |     720    2000   72800     510   90000     80
 Comment card is ignored.      |C    LFD   LHIST  LSIZ23   NCOMP  LSPCUM  LSIZ26
 3rd card (Lists 21-30).       |    3000   15000  192000     120   45000  26000
 4th card (Lists 31-32).       |     200     300     { Optional card for Lists
 Comment card is ignored.      |C  LWORK  LMARTI
 Supplemental offsets.         |  840000     742
 <===> Done with  "/"-card sorting by data class.    Remember that the source file appears different from interpreted input data.
Alternative Transients Program (ATP),  GNU Linux or DOS.  All rights reserved by Can/Am user group of Portland, Oregon, USA.
 Date (dd-mth-yy) and time of day (hh.mm.ss) = 28-Feb-22  20:19:22   Name of disk plot file is  p\bdfinalisima\energizacion2878.pl4
Consult the 860-page ATP Rule Book of the Can/Am EMTP User Group in Portland,  Oregon, USA.  Source code date is 12 August 2008.
Total size of LABCOM tables = 10913436 INTEGER words.  31 VARDIM  List Sizes follow:  6002  10K  192K  900  420K  1200  15K
  120K  2250  3800  720  2K  72800  510  90K  800  90  254  120K  100K  3K  15K  192K  120  45K  260K  600  210K  1100  60  200
--------------------------------------------------+--------------------------------------------------------------------------------
Descriptive interpretation of input data cards.   |  Input data card images are shown below, all 80 columns, character by character
                                                  0         1         2         3         4         5         6         7         8
                                                  012345678901234567890123456789012345678901234567890123456789012345678901234567890
--------------------------------------------------+--------------------------------------------------------------------------------
Comment card.   NUMDCD = 1.                       |C data:D:\ATP\BDFINALISIMA\ENERGIZACION2878.ATP
Marker card preceding new EMTP data case.         |BEGIN NEW DATA CASE
Comment card.   NUMDCD = 3.                       |C --------------------------------------------------------
Comment card.   NUMDCD = 4.                       |C Generated by ATPDRAW  febrero, lunes 28, 2022
Comment card.   NUMDCD = 5.                       |C A Bonneville Power Administration program
Comment card.   NUMDCD = 6.                       |C by H. K. Høidalen at SEfAS/NTNU - NORWAY 1994-2016
Comment card.   NUMDCD = 7.                       |C --------------------------------------------------------
Comment card.   NUMDCD = 8.                       |C  dT  >< Tmax >< Xopt >< Copt ><Epsiln>
Misc. data.     1.000E-06   1.200E-01   5.000E+01 |   1.E-6     .12     50.
Misc. data.    500    1  0  1  1  0  0  0  0  0   |     500       1       0       1       1       0       0       0       0
  ///  Warning.  Nonzero XOPT or COPT differs from the power frequency of  6.00000000E+01  Hz.   Did the user really want this?
No TACS data,  but MODELS data begins (next).     |MODELS
      Another ordinary MODELS data card.          |OUTPUT
      Another ordinary MODELS data card.          |  AnVol
      Another ordinary MODELS data card.          |  LONG
      Another ordinary MODELS data card.          |  R0F
      Another ordinary MODELS data card.          |  R1F
      Another ordinary MODELS data card.          |  X0F
      Another ordinary MODELS data card.          |  X1F
      Another ordinary MODELS data card.          |  RDIVX
      Another ordinary MODELS data card.          |  RINSER
      Another ordinary MODELS data card.          |  CLOSE1
      Another ordinary MODELS data card.          |  RPpos
      Another ordinary MODELS data card.          |  RPcero
      Another ordinary MODELS data card.          |  LPpos
      Another ordinary MODELS data card.          |  LPcero
      Another ordinary MODELS data card.          |  CPpos
      Another ordinary MODELS data card.          |  CPcero
      Another ordinary MODELS data card.          |  Xp
      Another ordinary MODELS data card.          |  CR
      Another ordinary MODELS data card.          |  SIMET
      Another ordinary MODELS data card.          |  ENC1
      Another ordinary MODELS data card.          |  ENC2
      Another ordinary MODELS data card.          |  ENC1AS
      Another ordinary MODELS data card.          |  ENC2AS
      Another ordinary MODELS data card.          |MODEL DEFAULT
      Another ordinary MODELS data card.          |DATA AnVol,LONG,R0F,R1F,X0F,X1F,RDIVX,RINSER,CLOSE1,RPpos,RPcero,LPpos,LPcero
      Another ordinary MODELS data card.          |OUTPUT o1,o2,o3, o4, o5, o6, o7, o8, o9, o10, o11, o12, o13
      Another ordinary MODELS data card.          |VAR o1,o2,o3, o4, o5, o6, o7, o8, o9, o10, o11, o12, o13
      Another ordinary MODELS data card.          |INIT
      Another ordinary MODELS data card.          |  o1:=AnVol
      Another ordinary MODELS data card.          |  o2:=LONG
      Another ordinary MODELS data card.          |  o3:=R0F
      Another ordinary MODELS data card.          |  o4:=R1F
      Another ordinary MODELS data card.          |  o5:=X0F
      Another ordinary MODELS data card.          |  O6:=X1F
      Another ordinary MODELS data card.          |  o7:=RDIVX
      Another ordinary MODELS data card.          |  o8:=RINSER
      Another ordinary MODELS data card.          |  o9:=CLOSE1
      Another ordinary MODELS data card.          |  o10:=RPpos
      Another ordinary MODELS data card.          |  o11:=RPcero
      Another ordinary MODELS data card.          |  o12:=LPpos
      Another ordinary MODELS data card.          |  o13:=LPcero
      Another ordinary MODELS data card.          |
      Another ordinary MODELS data card.          |ENDINIT
      Another ordinary MODELS data card.          |EXEC
      Another ordinary MODELS data card.          |ENDEXEC
      Another ordinary MODELS data card.          |ENDMODEL
      Another ordinary MODELS data card.          |MODEL DEFAULT1
      Another ordinary MODELS data card.          |DATA CPpos,CPcero,Xp,CR,SIMET,ENC1,ENC2,ENC1AS,ENC2AS
      Another ordinary MODELS data card.          |OUTPUT o1, o2, o3, o4, o5, o6, o7, o8, o9
      Another ordinary MODELS data card.          |VAR o1, o2, o3, o4, o5, o6, o7, o8, o9
      Another ordinary MODELS data card.          |INIT
      Another ordinary MODELS data card.          |  o1:=CPpos
      Another ordinary MODELS data card.          |  o2:=CPcero
      Another ordinary MODELS data card.          |  o3:=Xp
      Another ordinary MODELS data card.          |  o4:=CR
      Another ordinary MODELS data card.          |  o5:=SIMET
      Another ordinary MODELS data card.          |  o6:=ENC1
      Another ordinary MODELS data card.          |  o7:=ENC2
      Another ordinary MODELS data card.          |  o8:=ENC1AS
      Another ordinary MODELS data card.          |  o9:=ENC2AS
      Another ordinary MODELS data card.          |
      Another ordinary MODELS data card.          |ENDINIT
      Another ordinary MODELS data card.          |EXEC
      Another ordinary MODELS data card.          |ENDEXEC
      Another ordinary MODELS data card.          |ENDMODEL
      Another ordinary MODELS data card.          |USE DEFAULT AS DEFAULT
      Another ordinary MODELS data card.          |DATA
      Another ordinary MODELS data card.          |  AnVol:=      0.0
      Another ordinary MODELS data card.          |  LONG:= 5.030856
      Another ordinary MODELS data card.          |  R0F:= 1.291847
      Another ordinary MODELS data card.          |  R1F:= 1.186749
      Another ordinary MODELS data card.          |  X0F:= 12.53785
      Another ordinary MODELS data card.          |  X1F:= 11.51784
      Another ordinary MODELS data card.          |  RDIVX:= 0.103036
      Another ordinary MODELS data card.          |  RINSER:=     380.
      Another ordinary MODELS data card.          |  CLOSE1:= 0.054016
      Another ordinary MODELS data card.          |  RPpos:= 0.019307
      Another ordinary MODELS data card.          |  RPcero:=  0.21252
      Another ordinary MODELS data card.          |  LPpos:= 0.381183
      Another ordinary MODELS data card.          |  LPcero:= 1.317654
      Another ordinary MODELS data card.          |OUTPUT
      Another ordinary MODELS data card.          |  AnVol:=o1
      Another ordinary MODELS data card.          |  LONG:=o2
      Another ordinary MODELS data card.          |  R0F:=o3
      Another ordinary MODELS data card.          |  R1F:=o4
      Another ordinary MODELS data card.          |  X0F:=o5
      Another ordinary MODELS data card.          |  X1F:=o6
      Another ordinary MODELS data card.          |  RDIVX:=o7
      Another ordinary MODELS data card.          |  RINSER:=o8
      Another ordinary MODELS data card.          |  CLOSE1:=o9
      Another ordinary MODELS data card.          |  RPpos:=o10
      Another ordinary MODELS data card.          |  RPcero:=o11
      Another ordinary MODELS data card.          |  LPpos:=o12
      Another ordinary MODELS data card.          |  LPcero:=o13
      Another ordinary MODELS data card.          |ENDUSE
      Another ordinary MODELS data card.          |USE DEFAULT1 AS DEF
      Another ordinary MODELS data card.          |DATA
      Another ordinary MODELS data card.          |  CPpos:=  0.00934
      Another ordinary MODELS data card.          |  CPcero:= 0.008239
      Another ordinary MODELS data card.          |  Xp:= 104220.6
      Another ordinary MODELS data card.          |  CR:= 2084.412
      Another ordinary MODELS data card.          |  SIMET:=      0.0
      Another ordinary MODELS data card.          |  ENC1:=      0.0
      Another ordinary MODELS data card.          |  ENC2:=      0.0
      Another ordinary MODELS data card.          |  ENC1AS:=      0.0
      Another ordinary MODELS data card.          |  ENC2AS:=       1.
      Another ordinary MODELS data card.          |OUTPUT
      Another ordinary MODELS data card.          |  CPpos:=o1
      Another ordinary MODELS data card.          |  CPcero:=o2
      Another ordinary MODELS data card.          |  Xp:=o3
      Another ordinary MODELS data card.          |  CR:=o4
      Another ordinary MODELS data card.          |  SIMET:=o5
      Another ordinary MODELS data card.          |  ENC1:=o6
      Another ordinary MODELS data card.          |  ENC2:=o7
      Another ordinary MODELS data card.          |  ENC1AS:=o8
      Another ordinary MODELS data card.          |  ENC2AS:=o9
      Another ordinary MODELS data card.          |ENDUSE
      Another ordinary MODELS data card.          |RECORD
      Another ordinary MODELS data card.          |  DEFAULT.o1 AS AnVOL
      Another ordinary MODELS data card.          |  DEFAULT.o2 AS LONG
      Another ordinary MODELS data card.          |  DEFAULT.o3 AS R0F
      Another ordinary MODELS data card.          |  DEFAULT.o4 AS R1F
      Another ordinary MODELS data card.          |  DEFAULT.o5 AS X0F
      Another ordinary MODELS data card.          |  DEFAULT.o6 AS X1F
      Another ordinary MODELS data card.          |  DEFAULT.o7 AS RDIVX
      Another ordinary MODELS data card.          |  DEFAULT.o8 AS RINSER
      Another ordinary MODELS data card.          |  DEFAULT.o9 AS CLOSE1
      Another ordinary MODELS data card.          |  DEFAULT.o10 AS RPpos
      Another ordinary MODELS data card.          |  DEFAULT.o11 AS RPcero
      Another ordinary MODELS data card.          |  DEFAULT.o12 AS LPpos
      Another ordinary MODELS data card.          |  DEFAULT.o13 AS LPcero
      Another ordinary MODELS data card.          |  DEF.o1 AS CPpos
      Another ordinary MODELS data card.          |  DEF.o2 AS CPcero
      Another ordinary MODELS data card.          |  DEF.o3 AS Xp
      Another ordinary MODELS data card.          |  DEF.o4 AS CR
      Another ordinary MODELS data card.          |  DEF.o5 AS SIMET
      Another ordinary MODELS data card.          |  DEF.o6 AS ENC1
      Another ordinary MODELS data card.          |  DEF.o7 AS ENC2
      Another ordinary MODELS data card.          |  DEF.o8 AS ENC1AS
      Another ordinary MODELS data card.          |  DEF.o9 AS ENC2AS
Termination of data for Laurent Dube`s MODELS.    |ENDMODELS
Comment card.   NUMDCD = 153.                     |C        1         2         3         4         5         6         7         8
Comment card.   NUMDCD = 154.                     |C 345678901234567890123456789012345678901234567890123456789012345678901234567890
Optional blank card follows last of MODELS data.  |BLANK MODELS
Comment card.   NUMDCD = 156.                     |C < n1 >< n2 ><ref1><ref2>< R  >< L  >< C  >
Comment card.   NUMDCD = 157.                     |C < n1 >< n2 ><ref1><ref2>< R  >< A  >< B  ><Leng><><>0
1st of coupled R-L.   1.29180E+00  3.99092E-02    |51IFUENASB1A              1.291812.537853395
2nd coil. 1.187E+00 3.666E-02 0.000E+00 0.000E+00 |52IFUENBSB1B              1.186711.517839508
Zca, Zcc= 3.503E-02 1.082E-03 1.222E+00 3.774E-02 |53IFUENCSB1C
Series R-L-C.   1.000E+09  0.000E+00  0.000E+00   |  SB1A                      1.E9                                               0
Series R-L-C.   1.000E+09  0.000E+00  0.000E+00   |  SB1B                      1.E9                                               0
Series R-L-C.   1.000E+09  0.000E+00  0.000E+00   |  SB1C                      1.E9                                               0
Series R-L-C.   1.000E+09  0.000E+00  0.000E+00   |  RSNSHA                    1.E9                                               0
Series R-L-C.   1.000E+09  0.000E+00  0.000E+00   |  RSNSHB                    1.E9                                               0
Series R-L-C.   1.000E+09  0.000E+00  0.000E+00   |  RSNSHC                    1.E9                                               0
Series R-L-C.   2.084E+03  3.310E+02  0.000E+00   |  RSNNHA                  2084.41.04E5                                         0
Series R-L-C.   2.084E+03  3.310E+02  0.000E+00   |  RSNNHB                  2084.41.04E5                                         0
Series R-L-C.   2.084E+03  3.310E+02  0.000E+00   |  RSNNHC                  2084.41.04E5                                         0
Series R-L-C.   1.000E+09  0.000E+00  0.000E+00   |  SE2A                      1.E9                                               0
Series R-L-C.   1.000E+09  0.000E+00  0.000E+00   |  SE2B                      1.E9                                               0
Series R-L-C.   1.000E+09  0.000E+00  0.000E+00   |  SE2C                      1.E9                                               0
Series R-L-C.   2.500E+02  0.000E+00  3.000E-10   |  X0001B                    250.       .0003                                   0
Series R-L-C.   2.500E+02  0.000E+00  3.000E-10   |  X0002B                    250.       .0003                                   0
Series R-L-C.   1.000E-06  0.000E+00  0.000E+00   |  X0001ALN1A               1.E-6                                               0
Series R-L-C.   1.000E-06  0.000E+00  0.000E+00   |  SB1A  X0002A             1.E-6                                               0
Series R-L-C.   1.000E-06  0.000E+00  0.000E+00   |  X0001BLN1B               1.E-6                                               0
Series R-L-C.   1.000E-06  0.000E+00  0.000E+00   |  SB1B  X0002B             1.E-6                                               0
Series R-L-C.   1.000E-06  0.000E+00  0.000E+00   |  X0001CLN1C               1.E-6                                               0
Series R-L-C.   1.000E-06  0.000E+00  0.000E+00   |  SB1C  X0002C             1.E-6                                               0
Series R-L-C.   3.800E+02  0.000E+00  0.000E+00   |  XX0005X0002A              380.                                               0
Series R-L-C.   3.800E+02  0.000E+00  0.000E+00   |  XX0003X0002B              380.                                               0
Series R-L-C.   3.800E+02  0.000E+00  0.000E+00   |  XX0004X0002C              380.                                               0
Series R-L-C.   2.500E+02  0.000E+00  3.000E-10   |  X0001A                    250.       .0003                                   0
Series R-L-C.   1.000E+06  0.000E+00  0.000E+00   |  X0001AX0002A              1.E6                                               0
Series R-L-C.   1.000E+06  0.000E+00  0.000E+00   |  X0001BX0002B              1.E6                                               0
Series R-L-C.   1.000E+06  0.000E+00  0.000E+00   |  X0001CX0002C              1.E6                                               0
Series R-L-C.   2.500E+02  0.000E+00  3.000E-10   |  X0002C                    250.       .0003                                   0
Series R-L-C.   2.500E+02  0.000E+00  3.000E-10   |  X0002A                    250.       .0003                                   0
Series R-L-C.   2.500E+02  0.000E+00  3.000E-10   |  X0001C                    250.       .0003                                   0
Series R-L-C.   1.250E+02  0.000E+00  6.000E-10   |  X0001AX0002A              125.       .0006                                   0
Series R-L-C.   1.250E+02  0.000E+00  6.000E-10   |  X0001BX0002B              125.       .0006                                   0
Series R-L-C.   1.250E+02  0.000E+00  6.000E-10   |  X0001CX0002C              125.       .0006                                   0
 2.125E-01 1.318E+00 8.240E-03 7.135E+02 2.958E-05|-1LN1A  VFF2A             .212521.3177.008245.0309 0 0                         0
 1.931E-02 3.812E-01 9.340E-03 3.604E+02 1.694E-05|-2LN1B  VFF2B             .01931.38118.009345.0309 0 0                         0
3rd or later transposed distributed phase.        |-3LN1C  VFF2C                                                                  0
Blank card ending branches.  IBR, NTOT = 39  31   |BLANK BRANCH
Comment card.   NUMDCD = 198.                     |C < n 1>< n 2>< Tclose ><Top/Tde ><   Ie   ><Vf/CLOP ><  type  >
Switch.  -1.00E+00  1.00E+01  0.00E+00  0.00E+00  |  LN1A  COMPA        -1.       10.                                             0
Switch.  -1.00E+00  1.00E+01  0.00E+00  0.00E+00  |  LN1B  COMPB        -1.       10.                                             0
Switch.  -1.00E+00  1.00E+01  0.00E+00  0.00E+00  |  LN1C  COMPC        -1.       10.                                             0
Switch.  -1.00E+00  1.00E+01  0.00E+00  0.00E+00  |  VFF2A RSNNHA       -1.       10.                                             0
Switch.  -1.00E+00  1.00E+01  0.00E+00  0.00E+00  |  VFF2B RSNNHB       -1.       10.                                             0
Switch.  -1.00E+00  1.00E+01  0.00E+00  0.00E+00  |  VFF2C RSNNHC       -1.       10.                                             0
Switch.   2.00E+00 -1.00E+00  0.00E+00  0.00E+00  |  VFF2A SE2A          2.       -1.                                             0
Switch.   2.00E+00 -1.00E+00  0.00E+00  0.00E+00  |  VFF2B SE2B          2.       -1.                                             0
Switch.   2.00E+00 -1.00E+00  0.00E+00  0.00E+00  |  VFF2C SE2C          2.       -1.                                             0
Switch.   5.40E-02  1.00E+03  0.00E+00  0.00E+00  |  X0001BXX0003.054016132      1.E3                                             0
Switch.   5.40E-02  1.00E+03  0.00E+00  0.00E+00  |  X0001CXX0004.054016132      1.E3                                             0
Switch.   6.15E-02  1.00E+03  0.00E+00  0.00E+00  |  XX0005X0002A.061516132      1.E3                                             0
Switch.   6.15E-02  1.00E+03  0.00E+00  0.00E+00  |  XX0003X0002B.061516132      1.E3                                             0
Switch.   6.15E-02  1.00E+03  0.00E+00  0.00E+00  |  XX0004X0002C.061516132      1.E3                                             0
Switch.   5.40E-02  1.00E+03  0.00E+00  0.00E+00  |  X0001AXX0005.054016132      1.E3                                             0
Permanently-closed switch used for metering.      |  VFUENAIFUENA                                        MEASURING                1
Permanently-closed switch used for metering.      |  VFUENBIFUENB                                        MEASURING                1
Permanently-closed switch used for metering.      |  VFUENCIFUENC                                        MEASURING                1
Permanently-closed switch used for metering.      |  COMPA RSNSHA                                        MEASURING                1
Permanently-closed switch used for metering.      |  COMPB RSNSHB                                        MEASURING                1
Permanently-closed switch used for metering.      |  COMPC RSNSHC                                        MEASURING                1
Blank card ending switches.   KSWTCH = 21.        |BLANK SWITCH
Comment card.   NUMDCD = 221.                     |C < n 1><>< Ampl.  >< Freq.  ><Phase/T0><   A1   ><   T1   >< TSTART >< TSTOP  >
Source.   4.29E+05  5.00E+01  0.00E+00 -1.00E+00  |14VFUENA  428660.705       50.                                     -1.      100.
Source.   4.29E+05  5.00E+01 -1.20E+02 -1.00E+00  |14VFUENB  428660.705       50.     -120.                           -1.      100.
Source.   4.29E+05  5.00E+01 -2.40E+02 -1.00E+00  |14VFUENC  428660.705       50.     -240.                           -1.      100.
Blank card ends electric sources.  KCONST = 3     |BLANK SOURCE
Pi-equivalent branches of distributed circuits are added to the table of List Size 3 between indices  40   and  45.

Sinusoidal steady-state phasor solution, branch by branch.   All flows are away from a bus,  and the real part,  magnitude,  or  "P"
is printed above the imaginary part,  the angle,  or  "Q".   The first solution frequency  =  5.00000000E+01  Hertz.
  Bus K                        Phasor  node  voltage              Phasor  branch  current               Power flow       Power loss
             Bus M         Rectangular            Polar          Rectangular            Polar            P  and  Q        P  and  Q

 IFUENA                    428660.705       428660.705      .38473811935292  .42801901917988      82461.056741099  .10870188660064
                                  0.0              0.0      .18755495273782       25.9886463      -40198.71913342        1.0550357

            SB1A      428662.40865912  428662.40868438      -.3847381193529  .42801901917988      -82460.94803921
                      -4.653923373729       -0.0006221      -.1875549527378     -154.0113537      40199.774169133

 IFUENB                  -214330.3525       428660.705      -.0299417060015  .42801901917697      82461.056740701  .10870188659948
                      -371231.0601341     -120.0000000      -.4269704615298      -94.0113537      -40198.71913281        1.0550357

            SB1B      -214335.2347454  428662.40868438      .02994170600146  .42801901917697      -82460.94803881
                      -371230.2085845     -120.0006221      .42697046152976       85.9886463      40199.774168523

 IFUENC                  -214330.3525       428660.705      -.3547964133557  .42801901917888      82461.056740314   .1087018865998
                      371231.06013415      120.0000000      .23941550878918      145.9886463      -40198.71913454        1.0550357

            SB1C      -214327.1739137  428662.40868438       .3547964133557  .42801901917888      -82460.94803843
                      371234.86250791      119.9993779      -.2394155087892      -34.0113537      40199.774170254

 SB1A                 428662.40865912  428662.40868438      .42866240866E-3  .42866240868E-3      91.875730309548  91.875730309548
                      -4.653923373729       -0.0006221      -.4653923374E-8       -0.0006221      -.238228016E-19        0.0000000

            TERRA                 0.0              0.0      -.4286624087E-3  .42866240868E-3                  0.0
                                  0.0              0.0      .46539233737E-8      179.9993779                  0.0

 SB1B                 -214335.2347454  428662.40868438      -.2143352347E-3  .42866240868E-3      91.875730309548  91.875730309548
                      -371230.2085845     -120.0006221      -.3712302086E-3     -120.0006221      .1408595462E-14        0.0000000

            TERRA                 0.0              0.0      .21433523475E-3  .42866240868E-3                  0.0
                                  0.0              0.0      .37123020858E-3       59.9993779                  0.0

 SB1C                 -214327.1739137  428662.40868438      -.2143271739E-3  .42866240868E-3      91.875730309548  91.875730309548
                      371234.86250791      119.9993779      .37123486251E-3      119.9993779      .1748601264E-14        0.0000000

            TERRA                 0.0              0.0      .21432717391E-3  .42866240868E-3                  0.0
                                  0.0              0.0      -.3712348625E-3      -60.0006221                  0.0

 RSNSHA               30721.245312594  78416.995884875      .30721245313E-4  .78416995885E-4      3.0746126218043  3.0746126218043
                      -72148.66824864      -66.9354650      -.7214866825E-4      -66.9354650        .13476633E-15        0.0000000

            TERRA                 0.0              0.0      -.3072124531E-4  .78416995885E-4                  0.0
                                  0.0              0.0      .72148668249E-4      113.0645350                  0.0

 RSNSHB               -77843.20221105  78416.995887083      -.7784320221E-4  .78416995887E-4      3.0746126219774  3.0746126219774
                      9468.9552477738      173.0645350      .94689552478E-5      173.0645350       -.40928632E-17        0.0000000

            TERRA                 0.0              0.0      .77843202211E-4  .78416995887E-4                  0.0
                                  0.0              0.0      -.9468955248E-5       -6.9354650                  0.0

 RSNSHC               47121.956896517   78416.99588604      .47121956897E-4  .78416995886E-4      3.0746126218956  3.0746126218956
                      62679.713002167       53.0645350      .62679713002E-4       53.0645350       .113299127E-15        0.0000000

            TERRA                 0.0              0.0       -.471219569E-4  .78416995886E-4                  0.0
                                  0.0              0.0        -.62679713E-4     -126.9354650                  0.0

 RSNNHA               30721.102310175  78416.658992952      -.6875376778005  .75385494213236      592.27941873078  592.27941873078
                      -72148.36297841      -66.9354737      -.3091750562094     -155.7872878      29551.458236424    29551.4582364

            TERRA                 0.0              0.0      .68753767780047  .75385494213236                  0.0
                                  0.0              0.0      .30917505620945       24.2127122                  0.0

 RSNNHB               -77842.86633807   78416.65899516      .07601538600648  .75385494215358      592.27941876414  592.27941876414
                      9468.9264563891      173.0645263      .75001262316022       84.2127122      29551.458238088    29551.4582381

            TERRA                 0.0              0.0      -.0760153860065  .75385494215358                  0.0
                                  0.0              0.0      -.7500126231602      -95.7872878                  0.0

 RSNNHC               47121.764025957  78416.658994117      .61152229180615  .75385494214356      592.27941874838  592.27941874838
                      62679.436523326       53.0645263      -.4408375669319      -35.7872878      29551.458237302    29551.4582373

            TERRA                 0.0              0.0      -.6115222918061  .75385494214356                  0.0
                                  0.0              0.0      .44083756693188      144.2127122                  0.0

 X0001B               -77843.20221111  78416.995887099      -.8926008701E-3  .00739062774381      .00682767230595  .00682767230595
                      9468.9552473747      173.0645350      -.0073365279345      -96.9368150      -289.7754126144     -289.7754126

            TERRA                 0.0              0.0      .89260087014E-3  .00739062774381                  0.0
                                  0.0              0.0      .00733652793454       83.0631850                  0.0

 X0002B               -214335.2347454    428662.408684      .03498714689704  .04040048020854      .20402485013483  .20402485013483
                      -371230.2085841     -120.0006221      -.0202014443317      -30.0019721      -8659.083576687    -8659.0835767

            TERRA                 0.0              0.0       -.034987146897  .04040048020854                  0.0
                                  0.0              0.0      .02020144433168      149.9980279                  0.0

 X0001A               30721.245312972   78416.99588489      .37754580262117  .40416556041338      595.50279537811  .81674900176E-7
                      -72148.66824849      -66.9354650       .1442531356588       20.9109144      -15835.53141483              0.0

            LN1A      30721.245312594  78416.995884875      -.3775458026212  .40416556041338      -595.5027952964
                      -72148.66824864      -66.9354650      -.1442531356588     -159.0890856      15835.531414833

 SB1A                 428662.40865912  428662.40868438      .38434518501163  .42766585468732      82376.729948609  .91449045669E-7
                      -4.653923373729       -0.0006221      .18755495734268       26.0117146      -40199.77424176              0.0

            X0002A    428662.40865873    428662.408684      -.3843451850116  .42766585468732      -82376.72994852
                      -4.653923561284       -0.0006221      -.1875549573427     -153.9882854      40199.774241757

 X0001B               -77843.20221111  78416.995887099      -.0638392521068  .40416718401627      595.22641795982  .81675556318E-7
                      9468.9552473747      173.0645350      -.3990935510956      -99.0880770      -15835.60551016        0.0000000

            LN1B      -77843.20221105  78416.995887083      .06383925210685  .40416718401627      -595.2264178781
                      9468.9552477738      173.0645350      .39909355109558       80.9119230      15835.605510155

 SB1B                 -214335.2347454  428662.40868438      -.0297441147268  .42763961441372      82371.741989365  .91437819094E-7
                      -371230.2085845     -120.0006221      -.4266039468348      -93.9883801      -40197.17158699              0.0

            X0002B    -214335.2347454    428662.408684      .02974411472678  .42763961441372      -82371.74198927
                      -371230.2085841     -120.0006221       .4266039468348       86.0116199      40197.171586989

 X0001C               47121.956896203  78416.995886055      -.3137029125355  .40416512257996      595.28646167385  .81674722985E-7
                      62679.713002422       53.0645350      .25483313947916      140.9116948      -15835.52237001              0.0

            LN1C      47121.956896517   78416.99588604      .31370291253552  .40416512257996      -595.2864615922
                      62679.713002167       53.0645350      -.2548331394792      -39.0883052      15835.522370006

 SB1C                 -214327.1739137  428662.40868438      -.3546010702848  .42765764251757      82373.814767989  .91445528483E-7
                      371234.86250791      119.9993779      .23905886337161      146.0136149      -40201.73449345        0.0000000

            X0002C    -214327.1739133    428662.408684      .35460107028484  .42765764251757       -82373.8147679
                      371234.86250767      119.9993779      -.2390588633716      -33.9863851      40201.734493448

 XX0005               428662.40865873    428662.408684                  0.0              0.0                  0.0              0.0
                      -4.653923561284       -0.0006221                  0.0              0.0                  0.0              0.0

            X0002A    428662.40865873    428662.408684                  0.0              0.0                  0.0
                      -4.653923561284       -0.0006221                  0.0              0.0                  0.0

 XX0003               -214335.2347454    428662.408684                  0.0              0.0                  0.0              0.0
                      -371230.2085841     -120.0006221                  0.0              0.0                  0.0              0.0

            X0002B    -214335.2347454    428662.408684                  0.0              0.0                  0.0
                      -371230.2085841     -120.0006221                  0.0              0.0                  0.0

 XX0004               -214327.1739133    428662.408684                  0.0              0.0                  0.0              0.0
                      371234.86250767      119.9993779                  0.0              0.0                  0.0              0.0

            X0002C    -214327.1739133    428662.408684                  0.0              0.0                  0.0
                      371234.86250767      119.9993779                  0.0              0.0                  0.0

 X0001A               30721.245312972   78416.99588489      .00679992000177  .00739062774361      .00682767230556  .00682767230556
                      -72148.66824849      -66.9354650      .00289524893819       23.0631850      -289.7754125981     -289.7754126

            TERRA                 0.0              0.0      -.0067999200018  .00739062774361                  0.0
                                  0.0              0.0      -.0028952489382     -156.9368150                  0.0

 X0001A               30721.245312972   78416.99588489      -.3979411633458  .40442790245963      -3510.076771815  81780.964143947
                      -72148.66824849      -66.9354650      -.0721440143249     -169.7242747      15463.639469296        0.0000000

            X0002A    428662.40865873    428662.408684      .39794116334576  .40442790245963      85291.040915762
                      -4.653923561284       -0.0006221      .07214401432493       10.2757253       -15463.6394693

 X0001B               -77843.20221111  78416.995887099      .13649203253428  .40442790245893      -3510.076771869  81780.964143666
                      9468.9552473747      173.0645350      .38069916383148       70.2757253      15463.639469713        0.0000000

            X0002B    -214335.2347454    428662.408684      -.1364920325343  .40442790245893      85291.040915535
                      -371230.2085841     -120.0006221      -.3806991638315     -109.7242747      -15463.63946971

 X0001C               47121.956896203  78416.995886055      .26144913080954  .40442790245886      -3510.076771926  81780.964143635
                      62679.713002422       53.0645350      -.3085551495052      -49.7242747      15463.639469481        0.0000000

            X0002C    -214327.1739133    428662.408684      -.2614491308095  .40442790245886      85291.040915561
                      371234.86250767      119.9993779      .30855514950525      130.2757253      -15463.63946948

 X0002C               -214327.1739133    428662.408684      -.0349885374329  .04040048020854      .20402485013541  .20402485013541
                      371234.86250767      119.9993779      -.0201990358529     -150.0019721      -8659.083576687    -8659.0835767

            TERRA                 0.0              0.0      .03498853743289  .04040048020854                  0.0
                                  0.0              0.0      .02019903585293       29.9980279                  0.0

 X0002A               428662.40865873    428662.408684      .13905358502E-5  .04040048020854      .20402485013506  .20402485013506
                      -4.653923561284       -0.0006221      .04040048018461       89.9980279      -8659.083576687    -8659.0835767

            TERRA                 0.0              0.0       -.139053585E-5  .04040048020854                  0.0
                                  0.0              0.0      -.0404004801846      -90.0019721                  0.0

 X0001C               47121.956896203  78416.995886055      -.0059073191318  .00739062774371      .00682767230576  .00682767230576
                      62679.713002422       53.0645350      .00444127899616      143.0631850      -289.7754126067     -289.7754126

            TERRA                 0.0              0.0      .00590731913175  .00739062774371                  0.0
                                  0.0              0.0      -.0044412789962      -36.9368150                  0.0

 X0001A               30721.245312972   78416.99588489      .01359705893184  .07623286361527      2914.8117782707   .3632155934365
                      -72148.66824849      -66.9354650      -.0750104624928      -79.7256247      661.70256262678   -15415.3485609

            X0002A    428662.40865873    428662.408684      -.0135970589318  .07623286361527      -2914.448562677
                      -4.653923561284       -0.0006221      .07501046249283      100.2743753      -16077.05112356

 X0001B               -77843.20221111  78416.995887099      -.0717594955343  .07623286361514      2914.8117783494  .36321559343554
                      9468.9552473747      173.0645350      .02572983279427      160.2743753        661.702562637   -15415.3485609

            X0002B    -214335.2347454    428662.408684      .07175949553434  .07623286361514      -2914.448562756
                      -371230.2085841     -120.0006221      -.0257298327943      -19.7256247      -16077.05112351

 X0001C               47121.956896203  78416.995886055      .05816243660226  .07623286361513      2914.8117783057    .363215593435
                      62679.713002422       53.0645350      .04928062969819       40.2743753       661.7025626476   -15415.3485609

            X0002C    -214327.1739133    428662.408684      -.0581624366023  .07623286361513      -2914.448562712
                      371234.86250767      119.9993779      -.0492806296982     -139.7256247      -16077.05112352

 LN1A                 30721.245312594  78416.995884875       .3775145172941   .4041633857844      592.28905182832  .00963315791832
                      -72148.66824864      -66.9354650      .14432890092046       20.9225307      -15835.56661909   -45387.0248553

            VFF2A     30721.102310175  78416.658992952      .68753767779705  .75385494212795      -592.2794186704
                      -72148.36297841      -66.9354737      .30917505620631       24.2127122      -29551.45823625

 LN1B                 -77843.20221105  78416.995887083      -.0637647639524  .40416338579068      592.28905196849  .00963316277543
                      9468.9552477738      173.0645350      -.3991016127403      -99.0774693      -15835.56661977   -45387.0248578

            VFF2B     -77842.86633807   78416.65899516      -.0760153860052  .75385494215209      -592.2794188057
                      9468.9264563891      173.0645263      -.7500126231588      -95.7872878      -29551.45823803

 LN1C                 47121.956896517   78416.99588604      -.3137497533436  .40416338578502      592.28905202716  .00963323986303
                      62679.713002167       53.0645350      .25477271181591      140.9225307      -15835.56661934   -45387.0248566

            VFF2C     47121.764025957  78416.658994117      -.6115222918068  .75385494214369      -592.2794187873
                      62679.436523326       53.0645263      .44083756693116      144.2127122      -29551.45823731
     Total network loss  P-loss  by summing injections =   2.473883861239E+05

Output for steady-state phasor switch currents.
      Node-K    Node-M            I-real            I-imag            I-magn          Degrees        Power            Reactive
      LN1A      COMPA         3.27906825E-05   -8.21207313E-05    8.84253548E-05     -68.2332    3.46613600E+00    7.85235273E-02
      LN1B      COMPB        -7.23362179E-05    1.04491310E-05    7.30870219E-05     171.7804    2.86491260E+00    6.42227052E-02
      LN1C      COMPC         6.00877821E-05    6.98323447E-05    9.21254467E-05      49.2894    3.60426260E+00    2.37824100E-01
      VFF2A     RSNNHA       -6.87537678E-01   -3.09175056E-01    7.53854942E-01    -155.7873    5.92279419E+02    2.95514582E+04
      VFF2B     RSNNHB        7.60153860E-02    7.50012623E-01    7.53854942E-01      84.2127    5.92279419E+02    2.95514582E+04
      VFF2C     RSNNHC        6.11522292E-01   -4.40837567E-01    7.53854942E-01     -35.7873    5.92279419E+02    2.95514582E+04
      VFF2A     SE2A              Open              Open              Open             Open          Open              Open
      VFF2B     SE2B              Open              Open              Open             Open          Open              Open
      VFF2C     SE2C              Open              Open              Open             Open          Open              Open
      X0001B    XX0003            Open              Open              Open             Open          Open              Open
      X0001C    XX0004            Open              Open              Open             Open          Open              Open
      XX0005    X0002A            Open              Open              Open             Open          Open              Open
      XX0003    X0002B            Open              Open              Open             Open          Open              Open
      XX0004    X0002C            Open              Open              Open             Open          Open              Open
      X0001A    XX0005            Open              Open              Open             Open          Open              Open
      VFUENA    IFUENA        3.84738119E-01    1.87554953E-01    4.28019019E-01      25.9886    8.24610567E+04   -4.01987191E+04
      VFUENB    IFUENB       -2.99417060E-02   -4.26970462E-01    4.28019019E-01     -94.0114    8.24610567E+04   -4.01987191E+04
      VFUENC    IFUENC       -3.54796413E-01    2.39415509E-01    4.28019019E-01     145.9886    8.24610567E+04   -4.01987191E+04
      COMPA     RSNSHA        3.27906825E-05   -8.21207313E-05    8.84253548E-05     -68.2332    3.46613600E+00    7.85235273E-02
      COMPB     RSNSHB       -7.23362179E-05    1.04491310E-05    7.30870219E-05     171.7804    2.86491260E+00    6.42227052E-02
      COMPC     RSNSHC        6.00877821E-05    6.98323447E-05    9.21254467E-05      49.2894    3.60426260E+00    2.37824100E-01

Solution at nodes with known voltage.   Nodes that are shorted together by switches are shown as a group of names, with the printed
result applying to the composite group.   The entry "MVA" is  SQRT( P**2 + Q**2 )  in units of power,  while  "P.F."  is the
associated power factor.
              Node                Source  node  voltage             Injected  source  current              Injected  source  power
              name         Rectangular            Polar          Rectangular            Polar            P  and  Q    MVA and P.F.

               VFUENA
              IFUENA       428660.705       428660.705      .38473811935328  .42801901918088      82461.056741175  91737.467257743
                                  0.0              0.0      .18755495273938       25.9886463      -40198.71913375        0.8988809

               VFUENB
              IFUENB     -214330.3525       428660.705      -.0299417059972  .42801901917484      82461.056739905  91737.467256448
                      -371231.0601341     -120.0000000      -.4269704615279      -94.0113537       -40198.7191334        0.8988809

               VFUENC
              IFUENC     -214330.3525       428660.705      -.3547964133547  .42801901917817       82461.05674024  91737.467257162
                      371231.06013415      120.0000000      .23941550878934      145.9886463      -40198.71913434        0.8988809

  +++  Node  "COMPC "  has no connected linear branches.  Add (to ground) the conductance  G = 1.00000000E-18  mhos.
  +++  Node  "COMPB "  has no connected linear branches.  Add (to ground) the conductance  G = 1.00000000E-18  mhos.
  +++  Node  "COMPA "  has no connected linear branches.  Add (to ground) the conductance  G = 1.00000000E-18  mhos.
Card of names for time-step loop output.          |  LN1A  LN1B  LN1C  COMPA COMPB COMPC SB1A  SB1B  SB1C  SE2A  SE2B  SE2C  VFF2A
Card of names for time-step loop output.          |  VFF2B VFF2C IFUENAIFUENBIFUENC
Card of names for time-step loop output.          |-5VFF2A VFF2B VFF2B VFF2C VFF2C VFF2A LN1A  LN1B  LN1B  LN1C  LN1C  LN1A
Card of names for time-step loop output.          |-5SB1A  SB1B  SB1B  SB1C  SB1C  SB1A
Blank card ending requests for output variables.  |BLANK OUTPUT

Column headings for the  55   EMTP output variables follow.  These are divided among the 5 possible classes as follows ....
  First  27     output variables are electric-network voltage differences (upper voltage minus lower voltage);
  Next   6     output variables are branch currents (flowing from the upper node to the lower node);
  Next   22     output variables belong to MODELS (with "MODELS" an internally-added upper name of pair).
   Step      Time      LN1A       LN1B       LN1C       COMPA      COMPB      COMPC      SB1A       SB1B       SB1C       SE2A
 

                       SE2B       SE2C       VFF2A      VFF2B      VFF2C      IFUENA     IFUENB     IFUENC     VFF2A      VFF2B
                                                                                                               VFF2B      VFF2C

                       VFF2C      LN1A       LN1B       LN1C       SB1A       SB1B       SB1C       VFUENA     VFUENB     VFUENC
                       VFF2A      LN1B       LN1C       LN1A       SB1B       SB1C       SB1A       IFUENA     IFUENB     IFUENC

                       COMPA      COMPB      COMPC      MODELS     MODELS     MODELS     MODELS     MODELS     MODELS     MODELS
                       RSNSHA     RSNSHB     RSNSHC     ANVOL      LONG       R0F        R1F        X0F        X1F        RDIVX

                       MODELS     MODELS     MODELS     MODELS     MODELS     MODELS     MODELS     MODELS     MODELS     MODELS
                       RINSER     CLOSE1     RPPOS      RPCERO     LPPOS      LPCERO     CPPOS      CPCERO     XP         CR

                       MODELS     MODELS     MODELS     MODELS     MODELS
                       SIMET      ENC1       ENC2       ENC1AS     ENC2AS
 ***      Phasor I(0) =  3.2790683E-05                     Switch  "LN1A  "  to  "COMPA "  closed in the steady-state.
 ***      Phasor I(0) = -7.2336218E-05                     Switch  "LN1B  "  to  "COMPB "  closed in the steady-state.
 ***      Phasor I(0) =  6.0087782E-05                     Switch  "LN1C  "  to  "COMPC "  closed in the steady-state.
 ***      Phasor I(0) = -6.8753768E-01                     Switch  "VFF2A "  to  "RSNNHA"  closed in the steady-state.
 ***      Phasor I(0) =  7.6015386E-02                     Switch  "VFF2B "  to  "RSNNHB"  closed in the steady-state.
 ***      Phasor I(0) =  6.1152229E-01                     Switch  "VFF2C "  to  "RSNNHC"  closed in the steady-state.
 ***      Phasor I(0) =  3.8473812E-01                     Switch  "VFUENA"  to  "IFUENA"  closed in the steady-state.
 ***      Phasor I(0) = -2.9941706E-02                     Switch  "VFUENB"  to  "IFUENB"  closed in the steady-state.
 ***      Phasor I(0) = -3.5479641E-01                     Switch  "VFUENC"  to  "IFUENC"  closed in the steady-state.
 ***      Phasor I(0) =  3.2790683E-05                     Switch  "COMPA "  to  "RSNSHA"  closed in the steady-state.
 ***      Phasor I(0) = -7.2336218E-05                     Switch  "COMPB "  to  "RSNSHB"  closed in the steady-state.
 ***      Phasor I(0) =  6.0087782E-05                     Switch  "COMPC "  to  "RSNSHC"  closed in the steady-state.
      0       0.0  30721.2453 -77843.202 47121.9569 30721.2453 -77843.202 47121.9569 428662.409 -214335.23 -214327.17        0.0
                          0.0        0.0 30721.1023 -77842.866  47121.764 428660.705 -214330.35 -214330.35 108563.969 -124964.63
                   16400.6617 108564.448 -124965.16 16400.7116 642997.643 -8.0608317 -642989.58 .384738119 -.02994171 -.35479641
                   .327907E-4 -.72336E-4 .600878E-4        0.0   5.030856   1.291847   1.186749   12.53785   11.51784    .103036
                         380.    .054016    .019307     .21252    .381183   1.317654     .00934    .008239   104220.6   2084.412
                          0.0        0.0        0.0        0.0        1.0
    500     .5E-3  41629.5264 -78366.046 36736.5193 41629.5264 -78366.046 36736.5193 423385.449 -153623.14 -269762.31        0.0
                          0.0        0.0 41629.3436 -78365.713 36736.3695  423383.18 -153618.26 -269764.92 119995.057 -115102.08
                   -4892.9741 119995.572 -115102.56 -4893.0072 577008.592 116139.165 -693147.76 .350693803  .03720843 -.38790223
                    .46049E-4 -.85663E-4 .396147E-4        0.0   5.030856   1.291847   1.186749   12.53785   11.51784    .103036
                         380.    .054016    .019307     .21252    .381183   1.317654     .00934    .008239   104220.6   2084.412
                          0.0        0.0        0.0        0.0        1.0
   1000     .1E-2  51512.7531 -76959.263   25446.51 51512.7531 -76959.263   25446.51 407683.592 -89128.467 -318555.12        0.0
                          0.0        0.0  51512.536 -76958.941 25446.4055 407680.557 -89123.572 -318556.98 128471.478 -102405.35
                   -26066.131 128472.016 -102405.77 -26066.243 496812.058 229426.658 -726238.72 .307997572 .103450644 -.41144822
                   .544841E-4 -.84596E-4  .26485E-4        0.0   5.030856   1.291847   1.186749   12.53785   11.51784    .103036
                         380.    .054016    .019307     .21252    .381183   1.317654     .00934    .008239   104220.6   2084.412
                          0.0        0.0        0.0        0.0        1.0
   1500     .0015  60127.5684 -73657.493 13529.9246 60127.5684 -73657.493 13529.9246 381943.165  -22439.13 -359504.04        0.0
                          0.0        0.0 60127.2969 -73657.178 13529.8808 381939.485 -22434.368 -359505.12 133784.475 -87187.058
                   -46597.416 133785.061 -87187.418 -46597.644 404382.295 337064.905  -741447.2 .257691999 .167158351 -.42485035
                   .643506E-4 -.75342E-4 .146255E-4        0.0   5.030856   1.291847   1.186749   12.53785   11.51784    .103036
                         380.    .054016    .019307     .21252    .381183   1.317654     .00934    .008239   104220.6   2084.412
                          0.0        0.0        0.0        0.0        1.0
   2000      .002  67261.8291 -68542.027 1280.19824 67261.8291 -68542.027 1280.19824 346797.931 44802.7827 -391600.71        0.0
                          0.0        0.0 67261.5211 -68541.732 1280.21099 346793.795 44807.2448 -391601.04 135803.253 -69821.943
                    -65981.31 135803.856 -69822.226 -65981.631 301995.148 436403.496 -738398.64 .201043195 .226749168 -.42779236
                   .763804E-4 -.72987E-4 .138476E-5        0.0   5.030856   1.291847   1.186749   12.53785   11.51784    .103036
                         380.    .054016    .019307     .21252    .381183   1.317654     .00934    .008239   104220.6   2084.412
                          0.0        0.0        0.0        0.0        1.0
   2500     .0025  72739.8685 -61738.828  -11001.04 72739.8685 -61738.828  -11001.04 303113.375 110941.506 -414054.88        0.0
                          0.0        0.0 72739.5516  -61738.57 -11000.981 303108.891 110945.554 -414054.45 134478.122 -50737.589
                   -83740.533 134478.697 -50737.788 -83740.909 192171.869 524996.386 -717168.26 .139452714 .280752272 -.42020499
                   .797798E-4 -.65922E-4 -.12039E-4        0.0   5.030856   1.291847   1.186749   12.53785   11.51784    .103036
                         380.    .054016    .019307     .21252    .381183   1.317654     .00934    .008239   104220.6   2084.412
                          0.0        0.0        0.0        0.0        1.0
   3000      .003  76426.8123  -53415.42 -23011.393 76426.8123  -53415.42 -23011.393 251965.193 174348.464 -426313.66        0.0
                          0.0        0.0 76426.4897 -53415.203 -23011.286 251960.441 174352.016 -426312.46 129841.693 -30403.917
                   -99437.776 129842.232 -30404.027 -99438.205  77616.729 600662.122 -678278.85 .074430256 .327841344  -.4022716
                   .824033E-4 -.54978E-4 -.23784E-4        0.0   5.030856   1.291847   1.186749   12.53785   11.51784    .103036
                         380.    .054016    .019307     .21252    .381183   1.317654     .00934    .008239   104220.6   2084.412
                          0.0        0.0        0.0        0.0        1.0
   3500     .0035  78231.8758 -43776.752 -34455.124 78231.8758 -43776.752 -34455.124 194612.807 233462.378 -428075.18        0.0
                          0.0        0.0 78231.5417 -43776.575 -34454.967 194607.888 233465.353 -428073.24 122008.117 -9321.6082
                   -112686.51 122008.628 -9321.6275   -112687. -38849.571 661537.562 -622687.99 .007572914  .36685898 -.37443189
                   .844478E-4 -.45544E-4 -.38907E-4        0.0   5.030856   1.291847   1.186749   12.53785   11.51784    .103036
                         380.    .054016    .019307     .21252    .381183   1.317654     .00934    .008239   104220.6   2084.412
                          0.0        0.0        0.0        0.0        1.0
   4000      .004  78110.6084 -33060.158  -45050.45 78110.6084 -33060.158  -45050.45 132468.402 286827.675 -419296.08        0.0
                          0.0        0.0 78110.2699 -33060.025 -45050.245 132463.443 286829.997 -419293.44 111170.295 11990.2199
                   -123160.51 111170.767 11990.2919 -123161.06 -154359.27 706123.753 -551764.48 -.05947271 .396844285 -.33737157
                    .78876E-4 -.33328E-4 -.45545E-4        0.0   5.030856   1.291847   1.186749   12.53785   11.51784    .103036
                         380.    .054016    .019307     .21252    .381183   1.317654     .00934    .008239   104220.6   2084.412
                          0.0        0.0        0.0        0.0        1.0
   4500     .0045  76065.9956 -21529.518 -54536.478 76065.9956 -21529.518 -54536.478 67062.1762 333130.328  -400192.5        0.0
                          0.0        0.0 76065.6686 -21529.435 -54536.234 67057.3081 333131.936 -400189.24 97595.1036 33006.7986
                    -130601.9 97595.5132 33006.9604 -130602.47 -266068.15 733322.833 -467254.68  -.1250541 .417058069 -.29200397
                   .751644E-4 -.22194E-4 -.60245E-4        0.0   5.030856   1.291847   1.186749   12.53785   11.51784    .103036
                         380.    .054016    .019307     .21252    .381183   1.317654     .00934    .008239   104220.6   2084.412
                          0.0        0.0        0.0        0.0        1.0
   5000      .005  72148.3836 -9468.7526 -62679.631 72148.3836 -9468.7526 -62679.631 4.65295838 371230.209 -371234.86        0.0
                          0.0        0.0 72148.0794 -9468.7243 -62679.355 -.45661E-7  371231.06 -371231.06 81616.8037 53210.6308
                   -134827.43 81617.1362 53210.8785 -134828.01 -371225.56 742465.071 -371239.51 -.18755528 .427002008 -.23944673
                   .809805E-4 -.10565E-4 -.64954E-4        0.0   5.030856   1.291847   1.186749   12.53785   11.51784    .103036
                         380.    .054016    .019307     .21252    .381183   1.317654     .00934    .008239   104220.6   2084.412
                          0.0        0.0        0.0        0.0        1.0
   5500     .0055  66454.2392  2825.1599 -69279.399 66454.2392  2825.1599 -69279.399 -67052.981 400189.168 -333136.19        0.0
                          0.0        0.0 66453.9623 2825.13466 -69279.097 -67057.308 400189.244 -333131.94 63628.8276 72104.2316
                   -135733.06 63629.0793  72104.559 -135733.64 -467242.15 733325.355 -266083.21 -.24543748 .426431356 -.18099387
                   .686098E-4 .317643E-5 -.70877E-4        0.0   5.030856   1.291847   1.186749   12.53785   11.51784    .103036
                         380.    .054016    .019307     .21252    .381183   1.317654     .00934    .008239   104220.6   2084.412
                          0.0        0.0        0.0        0.0        1.0
   6000      .006  59123.7738 15049.5016 -74173.275 59123.7738 15049.5016 -74173.275 -132459.54 419294.139  -286834.6        0.0
                          0.0        0.0  59123.528  15049.425 -74172.953 -132463.44  419293.44   -286830.  44074.103  89222.378
                   -133296.48 44074.2722  89222.777 -133297.05 -551753.68 706128.735 -154375.05 -.29727647 .415360686 -.11808422
                   .616985E-4  .15031E-4  -.7309E-4        0.0   5.030856   1.291847   1.186749   12.53785   11.51784    .103036
                         380.    .054016    .019307     .21252    .381183   1.317654     .00934    .008239   104220.6   2084.412
                          0.0        0.0        0.0        0.0        1.0
   6500     .0065  50337.4875  26903.269 -77240.757 50337.4875  26903.269 -77240.757 -194604.51 428074.697 -233470.19        0.0
                          0.0        0.0 50337.2793 26903.1428 -77240.422 -194607.89  428073.24 -233465.35 23434.1365 104143.565
                    -127577.7 23434.2184 104144.026 -127578.24 -622679.21 661544.882 -38865.673 -.34179616 .394062798 -.05226664
                   .525471E-4 .292356E-4 -.74506E-4        0.0   5.030856   1.291847   1.186749   12.53785   11.51784    .103036
                         380.    .054016    .019307     .21252    .381183   1.317654     .00934    .008239   104220.6   2084.412
                          0.0        0.0        0.0        0.0        1.0
   7000      .007  40311.7262 38094.5844 -78406.311 40311.7262 38094.5844 -78406.311 -251957.68 426314.637 -174356.96        0.0
                          0.0        0.0 40311.5626 38094.4106 -78405.973 -251960.44 426312.457 -174352.02 2217.15198 116500.384
                   -118717.54 2217.14173 116500.895 -118718.04 -678272.31 600671.599 77600.7136 -.37789979 .363061831 .014837957
                   .416698E-4 .426997E-4 -.77091E-4        0.0   5.030856   1.291847   1.186749   12.53785   11.51784    .103036
                         380.    .054016    .019307     .21252    .381183   1.317654     .00934    .008239   104220.6   2084.412
                          0.0        0.0        0.0        0.0        1.0
   7500     .0075  29293.3588 48347.8802 -77641.239 29293.3588 48347.8802 -77641.239 -303106.81 414057.296 -110950.49        0.0
                          0.0        0.0 29293.2444 48347.6628 -77640.907 -303108.89 414054.446 -110945.55 -19054.418  125988.57
                   -106934.15 -19054.521 125989.119  -106934.6  -717164.1 525007.787 192156.315  -.4046979 .323120882 .081577014
                   .299018E-4 .527301E-4  -.7534E-4        0.0   5.030856   1.291847   1.186749   12.53785   11.51784    .103036
                         380.    .054016    .019307     .21252    .381183   1.317654     .00934    .008239   104220.6   2084.412
                          0.0        0.0        0.0        0.0        1.0
   8000      .008  17553.6964 57410.6852 -74964.382 17553.6964 57410.6852 -74964.382 -346792.44  391604.49 -44812.051        0.0
                          0.0        0.0 17553.6331 57410.4302 -74964.063  -346793.8  391601.04 -44807.245 -39856.797 132374.493
                   -92517.696 -39856.989 132375.067 -92518.078 -738396.93 436416.541 301980.388 -.42153082 .275223529 .146307286
                   .197538E-4 .600312E-4 -.79788E-4        0.0   5.030856   1.291847   1.186749   12.53785   11.51784    .103036
                         380.    .054016    .019307     .21252    .381183   1.317654     .00934    .008239   104220.6   2084.412
                          0.0        0.0        0.0        0.0        1.0
   8500     .0085  5381.80853 65059.8437 -70441.652 5381.80853 65059.8437 -70441.652 -381938.89 359509.081  22429.809        0.0
                          0.0        0.0 5381.79736 65059.5575 -70441.355 -381939.48 359505.117 22434.3679  -59677.76 135500.912
                   -75823.152 -59678.035 135501.496 -75823.461 -741447.97 337079.271 404368.699 -.42798442 .220549354 .207435064
                   .550592E-5 .706306E-4 -.67957E-4        0.0   5.030856   1.291847   1.186749   12.53785   11.51784    .103036
                         380.    .054016    .019307     .21252    .381183   1.317654     .00934    .008239   104220.6   2084.412
                          0.0        0.0        0.0        0.0        1.0
   9000      .009  -6922.5931 71107.0089 -64184.416 -6922.5931 71107.0089 -64184.416 -407680.74 318561.365 89119.3733        0.0
                          0.0        0.0 -6922.5517 71106.6985 -64184.147 -407680.56 318556.985  89123.572  -78029.25 135290.845
                   -57261.595 -78029.602 135291.425 -57261.823  -726242.1 229441.992 496800.111 -.42389979 .160444607 .263455179
                   -.74806E-5 .698228E-4 -.65986E-4        0.0   5.030856   1.291847   1.186749   12.53785   11.51784    .103036
                         380.    .054016    .019307     .21252    .381183   1.317654     .00934    .008239   104220.6   2084.412
                          0.0        0.0        0.0        0.0        1.0
   9500     .0095  -19056.533 75403.2797 -56346.747 -19056.533 75403.2797 -56346.747 -423384.13 269769.612 153614.523        0.0
                          0.0        0.0 -19056.439 75402.9525 -56346.513 -423383.18 269764.922 153618.258 -94459.392 131749.466
                   -37290.074 -94459.812 131750.027 -37290.215 -693153.75 116155.089 576998.658  -.4093773 .096389162 .312988137
                   -.19436E-4  .73258E-4 -.61091E-4        0.0   5.030856   1.291847   1.186749   12.53785   11.51784    .103036
                         380.    .054016    .019307     .21252    .381183   1.317654     .00934    .008239   104220.6   2084.412
                          0.0        0.0        0.0        0.0        1.0
  10000       .01  -30721.231 77842.8677 -47121.636 -30721.231 77842.8677 -47121.636 -428662.41 214335.235 214327.174        0.0
                          0.0        0.0 -30721.088 77842.5318 -47121.444 -428660.71 214330.353 214330.352 -108563.62 124963.975
                   -16400.355  -108564.1 124964.504 -16400.405 -642997.64 8.06156064 642989.582  -.3847745  .02996025 .354814246
                   -.33332E-4 .796516E-4 -.49964E-4        0.0   5.030856   1.291847   1.186749   12.53785   11.51784    .103036
                         380.    .054016    .019307     .21252    .381183   1.317654     .00934    .008239   104220.6   2084.412
                          0.0        0.0        0.0        0.0        1.0
  10500     .0105  -41629.466 78365.7029 -36736.237 -41629.466 78365.7029 -36736.237 -423385.59 153623.214 269762.378        0.0
                          0.0        0.0 -41629.277 78365.3666  -36736.09 -423383.18 153618.258 269764.922 -119994.64 115101.457
                   4893.18661 -119995.17  115101.94 4893.22853  -577008.8 -116139.16 693147.969 -.35069726 -.03720638 .387903648
                   -.44206E-4 .844465E-4 -.40241E-4        0.0   5.030856   1.291847   1.186749   12.53785   11.51784    .103036
                         380.    .054016    .019307     .21252    .381183   1.317654     .00934    .008239   104220.6   2084.412
                          0.0        0.0        0.0        0.0        1.0
  11000      .011  -51512.639 76958.9118 -25446.273 -51512.639 76958.9118 -25446.273 -407683.62 89128.4788 318555.136        0.0
                          0.0        0.0 -51512.409 76958.5835 -25446.175 -407680.56  89123.572 318556.985 -128470.99 102404.758
                   26066.2337 -128471.55 102405.185  26066.366 -496812.09 -229426.66 726238.752 -.30798474 -.10345685 .411441597
                   -.54597E-4 .734513E-4 -.26129E-4        0.0   5.030856   1.291847   1.186749   12.53785   11.51784    .103036
                         380.    .054016    .019307     .21252    .381183   1.317654     .00934    .008239   104220.6   2084.412
                          0.0        0.0        0.0        0.0        1.0
  11500     .0115  -60127.394 73657.1348 -13529.741 -60127.394 73657.1348 -13529.741 -381943.12  22439.105 359504.011        0.0
                          0.0        0.0 -60127.128 73656.8225 -13529.694 -381939.48 22434.3679 359505.117 -133783.95 87186.5167
                    46597.434 -133784.53 87186.8754 46597.6536 -404382.22 -337064.91 741447.126 -.25768865 -.16715986 .424848504
                   -.65734E-4 .758269E-4 -.13739E-4        0.0   5.030856   1.291847   1.186749   12.53785   11.51784    .103036
                         380.    .054016    .019307     .21252    .381183   1.317654     .00934    .008239   104220.6   2084.412
                          0.0        0.0        0.0        0.0        1.0
  12000      .012  -67261.608 68541.6731 -1280.0654 -67261.608 68541.6731 -1280.0654 -346797.91 -44802.794 391600.703        0.0
                          0.0        0.0 -67261.313 68541.3845 -1280.0719  -346793.8 -44807.245  391601.04  -135802.7 69821.4564
                   65981.2408 -135803.28 69821.7385 65981.5423 -301995.12  -436403.5 738398.612  -.2010474 -.22674683 .427794233
                   -.73812E-4 .715283E-4 -.13527E-5        0.0   5.030856   1.291847   1.186749   12.53785   11.51784    .103036
                         380.    .054016    .019307     .21252    .381183   1.317654     .00934    .008239   104220.6   2084.412
                          0.0        0.0        0.0        0.0        1.0
  12500     .0125  -72739.612 61738.4871 11001.1247 -72739.612 61738.4871 11001.1247 -303113.39  -110941.5 414054.887        0.0
                          0.0        0.0 -72739.295 61738.2293 11001.0656 -303108.89 -110945.55 414054.446 -134477.52 50737.1637
                   83740.3604  -134478.1 50737.3624 83740.7366 -192171.89 -524996.39 717168.274 -.13945569 -.28075056 .420206245
                   -.78099E-4  .64894E-4 .113919E-4        0.0   5.030856   1.291847   1.186749   12.53785   11.51784    .103036
                         380.    .054016    .019307     .21252    .381183   1.317654     .00934    .008239   104220.6   2084.412
                          0.0        0.0        0.0        0.0        1.0
  13000      .013   -76426.52 53415.0944 23011.4257  -76426.52 53415.0944 23011.4257 -251965.21 -174348.46 426313.665        0.0
                          0.0        0.0 -76426.189 53414.8737 23011.3154 -251960.44 -174352.02 426312.457 -129841.06 30403.5583
                   99437.5044 -129841.61 30403.6687 99437.9458  -77616.75 -600662.12 678278.872 -.07443011 -.32784128 .402271385
                   -.82352E-4 .548219E-4 .238884E-4        0.0   5.030856   1.291847   1.186749   12.53785   11.51784    .103036
                         380.    .054016    .019307     .21252    .381183   1.317654     .00934    .008239   104220.6   2084.412
                          0.0        0.0        0.0        0.0        1.0
  13500     .0135  -78231.549 43776.4449 34455.1038 -78231.549 43776.4449 34455.1038 -194612.81 -233462.38 428075.185        0.0
                          0.0        0.0 -78231.212 43776.2668  34454.945 -194607.89 -233465.35  428073.24 -122007.48 9321.32178
                   112686.157 -122007.99 9321.34114 112686.653  38849.569 -661537.56 622687.993 -.00757183 -.36685945 .374431279
                   -.84939E-4 .457406E-4 .391938E-4        0.0   5.030856   1.291847   1.186749   12.53785   11.51784    .103036
                         380.    .054016    .019307     .21252    .381183   1.317654     .00934    .008239   104220.6   2084.412
                          0.0        0.0        0.0        0.0        1.0
  14000      .014  -78110.252 33059.8749 45050.3775 -78110.252 33059.8749 45050.3775  -132468.4 -286827.68 419296.074        0.0
                          0.0        0.0 -78109.918 33059.7438 45050.1742 -132463.44   -286830.  419293.44 -111169.66  -11990.43
                   123160.092 -111170.13 -11990.503  123160.63 154359.283 -706123.75  551764.47 .059472882 -.39684433 .337371443
                   -.78744E-4 .332395E-4 .455081E-4        0.0   5.030856   1.291847   1.186749   12.53785   11.51784    .103036
                         380.    .054016    .019307     .21252    .381183   1.317654     .00934    .008239   104220.6   2084.412
                          0.0        0.0        0.0        0.0        1.0
  14500     .0145  -76065.618 21529.2625  54536.356 -76065.618 21529.2625  54536.356 -67062.172 -333130.33 400192.502        0.0
                          0.0        0.0 -76065.295 21529.1816 54536.1131 -67057.308 -333131.94 400189.244 -97594.476 -33006.932
                   130601.408 -97594.881 -33007.093 130601.974 266068.159 -733322.83 467254.674 .125053172 -.41705758 .292004406
                   -.74349E-4 .217731E-4 .598505E-4        0.0   5.030856   1.291847   1.186749   12.53785   11.51784    .103036
                         380.    .054016    .019307     .21252    .381183   1.317654     .00934    .008239   104220.6   2084.412
                          0.0        0.0        0.0        0.0        1.0
  % % % % % %   Suspended simulation;  plot data space exhausted;  SPY SPACE is required.   LIMBUF =  840000.
  % % % % % %   Suspended simulation;  plot data space exhausted;  SPY SPACE is required.   LIMBUF =  840000.
  +++  Time-sharing disabled.   Send  user-keyed interrupt to silence alarm.
   Current values.  INDBUF  INDBEG  LIMBUF  MFLUSH  NUMDCD  KCARD1  KCARD2
                    839994      50  840000    1000     230       1     231
Plot timespan now in memory (in sec) = 0.00000000E+00   1.49990000E-02
   ++++  Begin plot-data copy from memory to disk.   MFLUSH, INDBUF, N4, Tbeg,  Tend = 1001  839994       1  -1.00000E+00
1.00000E+19
  15000      .015  -72147.993 9468.53015 62679.4629 -72147.993 9468.53015 62679.4629 -4.6543758 -371230.21 371234.863        0.0
                          0.0        0.0 -72147.688 9468.50135 62679.1864 -.61533E-6 -371231.06  371231.06 -81616.189 -53210.685
                   134826.874 -81616.523 -53210.933 134827.456 371225.554 -742465.07 371239.517 .187554244  -.4270015 .239447253
                   -.80253E-4 .102384E-4 .645667E-4        0.0   5.030856   1.291847   1.186749   12.53785   11.51784    .103036
                         380.    .054016    .019307     .21252    .381183   1.317654     .00934    .008239   104220.6   2084.412
                          0.0        0.0        0.0        0.0        1.0
  15500     .0155  -66453.841 -2825.3465  69279.188 -66453.841 -2825.3465  69279.188 67052.9775 -400189.17 333136.189        0.0
                          0.0        0.0 -66453.562 -2825.3224 69278.8847 67057.3081 -400189.24 333131.936  -63628.24 -72104.207
                   135732.447 -63628.495 -72104.534 135733.029 467242.144 -733325.36 266083.211 .245437105 -.42643122  .18099412
                   -.68314E-4 -.27792E-5  .70639E-4        0.0   5.030856   1.291847   1.186749   12.53785   11.51784    .103036
                         380.    .054016    .019307     .21252    .381183   1.317654     .00934    .008239   104220.6   2084.412
                          0.0        0.0        0.0        0.0        1.0
  16000      .016  -59123.373 -15049.651 74173.0243 -59123.373 -15049.651 74173.0243 132459.543 -419294.14 286834.596        0.0
                          0.0        0.0 -59123.127 -15049.575 74172.7018 132463.443 -419293.44 286829.997 -44073.553 -89222.276
                   133295.829 -44073.723 -89222.675 133296.398 551753.681 -706128.74 154375.054 .297276483  -.4153608 .118084318
                   -.61487E-4 -.15015E-4 .728592E-4        0.0   5.030856   1.291847   1.186749   12.53785   11.51784    .103036
                         380.    .054016    .019307     .21252    .381183   1.317654     .00934    .008239   104220.6   2084.412
                          0.0        0.0        0.0        0.0        1.0
  16500     .0165   -50337.09  -26903.38 77240.4697  -50337.09  -26903.38 77240.4697 194604.514  -428074.7 233470.184        0.0
                          0.0        0.0 -50336.883 -26903.253 77240.1358 194607.888 -428073.24 233465.353  -23433.63 -104143.39
                   127577.019  -23433.71 -104143.85  127577.56 622679.212 -661544.88   38865.67 .341795926 -.39406282 .052266892
                   -.52178E-4 -.29271E-4 .741705E-4        0.0   5.030856   1.291847   1.186749   12.53785   11.51784    .103036
                         380.    .054016    .019307     .21252    .381183   1.317654     .00934    .008239   104220.6   2084.412
                          0.0        0.0        0.0        0.0        1.0
  17000      .017  -40311.339 -38094.654 78405.9937 -40311.339 -38094.654 78405.9937 251957.677 -426314.64 174356.961        0.0
                          0.0        0.0 -40311.176  -38094.48 78405.6567 251960.441 -426312.46 174352.016  -2216.696 -116500.14
                   118716.833 -2216.6848 -116500.65 118717.333 678272.314  -600671.6 -77600.716 .377899221 -.36306171 -.01483751
                   -.41244E-4 -.42727E-4 .766888E-4        0.0   5.030856   1.291847   1.186749   12.53785   11.51784    .103036
                         380.    .054016    .019307     .21252    .381183   1.317654     .00934    .008239   104220.6   2084.412
                          0.0        0.0        0.0        0.0        1.0
  17500     .0175  -29292.989 -48347.909 77640.8976 -29292.989 -48347.909 77640.8976 303106.805  -414057.3 110950.491        0.0
                          0.0        0.0 -29292.874 -48347.691 77640.5658 303108.891 -414054.45 110945.554  19054.817 -125988.26
                    106933.44 19054.9194 -125988.81 106933.887 717164.101 -525007.79 -192156.31 .404697383 -.32312082 -.08157657
                   -.29517E-4 -.52706E-4 .749528E-4        0.0   5.030856   1.291847   1.186749   12.53785   11.51784    .103036
                         380.    .054016    .019307     .21252    .381183   1.317654     .00934    .008239   104220.6   2084.412
                          0.0        0.0        0.0        0.0        1.0
  18000      .018  -17553.349 -57410.673 74964.0212 -17553.349 -57410.673 74964.0212 346792.438 -391604.49 44812.0517        0.0
                          0.0        0.0 -17553.285 -57410.418 74963.7026 346793.795 -391601.04 44807.2448 39857.1329 -132374.12
                   92516.9875  39857.324 -132374.69 92517.3698 738396.927 -436416.54 -301980.39 .421530554 -.27522362 -.14630693
                   -.19447E-4 -.59949E-4 .793934E-4        0.0   5.030856   1.291847   1.186749   12.53785   11.51784    .103036
                         380.    .054016    .019307     .21252    .381183   1.317654     .00934    .008239   104220.6   2084.412
                          0.0        0.0        0.0        0.0        1.0
  18500     .0185  -5381.4873 -65059.791 70441.2784 -5381.4873 -65059.791 70441.2784  381938.89 -359509.08 -22429.809        0.0
                          0.0        0.0 -5381.4761 -65059.505  70440.981 381939.485 -359505.12 -22434.368 59678.0288 -135500.49
                   75822.4572 59678.3038 -135501.07 75822.7657  741447.97 -337079.27  -404368.7 .427984245 -.22054951 -.20743473
                   -.52774E-5 -.70491E-4 .675768E-4        0.0   5.030856   1.291847   1.186749   12.53785   11.51784    .103036
                         380.    .054016    .019307     .21252    .381183   1.317654     .00934    .008239   104220.6   2084.412
                          0.0        0.0        0.0        0.0        1.0
  19000      .019   6922.8826 -71106.917 64184.0348  6922.8826 -71106.917 64184.0348 407680.739 -318561.37 -89119.374        0.0
                          0.0        0.0 6922.84093 -71106.607 64183.7659 407680.557 -318556.98 -89123.572 78029.4478 -135290.37
                    57260.925    78029.8 -135290.95 57261.1522 726242.104 -229441.99 -496800.11 .423899545 -.16044475  -.2634548
                   .767946E-5 -.69655E-4 .656098E-4        0.0   5.030856   1.291847   1.186749   12.53785   11.51784    .103036
                         380.    .054016    .019307     .21252    .381183   1.317654     .00934    .008239   104220.6   2084.412
                          0.0        0.0        0.0        0.0        1.0
  19500     .0195   19056.786 -75403.151 56346.3651  19056.786 -75403.151 56346.3651 423384.135 -269769.61 -153614.52        0.0
                          0.0        0.0 19056.6925 -75402.824 56346.1313  423383.18 -269764.92 -153618.26 94459.5164 -131748.96
                   37289.4388 94459.9371 -131749.52  37289.579 693153.747 -116155.09 -576998.66 .409377034  -.0963893 -.31298773
                   .196482E-4 -.73078E-4 .607036E-4        0.0   5.030856   1.291847   1.186749   12.53785   11.51784    .103036
                         380.    .054016    .019307     .21252    .381183   1.317654     .00934    .008239   104220.6   2084.412
                          0.0        0.0        0.0        0.0        1.0
  20000       .02  30721.4455 -77842.705 47121.2593 30721.4455 -77842.705 47121.2593 428662.409 -214335.24 -214327.17        0.0
                          0.0        0.0 30721.3025 -77842.369 47121.0664 428660.705 -214330.35 -214330.35 108563.671 -124963.44
                   16399.7639  108564.15 -124963.96 16399.8138 642997.644 -8.0615502 -642989.58 .384774306 -.02996044 -.35481387
                   .335028E-4 -.79449E-4 .495873E-4        0.0   5.030856   1.291847   1.186749   12.53785   11.51784    .103036
                         380.    .054016    .019307     .21252    .381183   1.317654     .00934    .008239   104220.6   2084.412
                          0.0        0.0        0.0        0.0        1.0
  20500     .0205  41629.6378 -78365.509 36735.8707 41629.6378 -78365.509 36735.8707 423385.591 -153623.21 -269762.38        0.0
                          0.0        0.0 41629.4488 -78365.172 36735.7235  423383.18 -153618.26 -269764.92 119994.621  -115100.9
                   -4893.7253 119995.146 -115101.38 -4893.7671 577008.805 116139.164 -693147.97 .350697162 .037206145 -.38790331
                    .44289E-4 -.84192E-4 .399053E-4        0.0   5.030856   1.291847   1.186749   12.53785   11.51784    .103036
                         380.    .054016    .019307     .21252    .381183   1.317654     .00934    .008239   104220.6   2084.412
                          0.0        0.0        0.0        0.0        1.0
  21000      .021  51512.7667 -76958.689 25445.9228 51512.7667 -76958.689 25445.9228 407683.615 -89128.479 -318555.14        0.0
                          0.0        0.0 51512.5363 -76958.361 25445.8248 407680.557 -89123.572 -318556.98 128470.897 -102404.19
                   -26066.712 128471.456 -102404.61 -26066.844 496812.094 229426.658 -726238.75 .307984693 .103456588 -.41144128
                   .546193E-4 -.87719E-4   .2582E-4        0.0   5.030856   1.291847   1.186749   12.53785   11.51784    .103036
[...]
                         380.    .054016    .019307     .21252    .381183   1.317654     .00934    .008239   104220.6   2084.412
                          0.0        0.0        0.0        0.0        1.0
 113000      .113  -252390.16 -174361.72 426751.887 -252390.16 -174361.72 426751.887 -252390.16 -174361.72 426751.887        0.0
                          0.0        0.0 -252426.07 -174378.77 426804.839 -251960.44 -174352.02 426312.457 -78047.295 -601183.61
                   679230.906 -78028.443 -601113.61 679142.052 -78028.443 -601113.61 679142.052 4.48977199 -3.6876966 -.80207513
                      -.26E-3 -.17374E-3 .404716E-3        0.0   5.030856   1.291847   1.186749   12.53785   11.51784    .103036
                         380.    .054016    .019307     .21252    .381183   1.317654     .00934    .008239   104220.6   2084.412
                          0.0        0.0        0.0        0.0        1.0
 113500     .1135  -194907.06 -233474.42 428381.477 -194907.06 -233474.42 428381.477 -194907.06 -233474.42 428381.477        0.0
                          0.0        0.0 -194933.17 -233492.31 428425.473 -194607.89 -233465.35  428073.24 38559.1383 -661917.78
                   623358.641 38567.3623  -661855.9 623288.534 38567.3623  -661855.9 623288.534 4.28517618 -3.5331525 -.75202334
                    -.1928E-3 -.24674E-3 .439554E-3        0.0   5.030856   1.291847   1.186749   12.53785   11.51784    .103036
                         380.    .054016    .019307     .21252    .381183   1.317654     .00934    .008239   104220.6   2084.412
                          0.0        0.0        0.0        0.0        1.0
 114000      .114   -132418.6 -286841.91  419260.51  -132418.6 -286841.91  419260.51  -132418.6 -286841.91  419260.51        0.0
                          0.0        0.0 -132413.51  -286839.7 419253.202 -132463.44   -286830.  419293.44 154426.191  -706092.9
                   551666.708 154423.305 -706102.42 551679.112 154423.305 -706102.42 551679.112 4.30217752 -3.3229841 -.97919305
                   -.14309E-3 -.30732E-3 .450253E-3        0.0   5.030856   1.291847   1.186749   12.53785   11.51784    .103036
                         380.    .054016    .019307     .21252    .381183   1.317654     .00934    .008239   104220.6   2084.412
                          0.0        0.0        0.0        0.0        1.0
 114500     .1145  -66718.853 -333146.58 399865.429 -66718.853 -333146.58 399865.429 -66718.853 -333146.58 399865.429        0.0
                          0.0        0.0 -66686.903   -333127. 399813.908 -67057.308 -333131.94 400189.244 266440.101 -732940.91
                   466500.811 266427.722   -733012. 466584.282 266427.723   -733012. 466584.282  4.6278571 -3.0603409  -1.567516
                   -.78408E-4 -.32884E-3 .407249E-3        0.0   5.030856   1.291847   1.186749   12.53785   11.51784    .103036
                         380.    .054016    .019307     .21252    .381183   1.317654     .00934    .008239   104220.6   2084.412
                          0.0        0.0        0.0        0.0        1.0
 115000      .115  360.824391 -371245.94 370885.117 360.824391 -371245.94 370885.117 360.824401 -371245.94 370885.117        0.0
                          0.0        0.0 393.588842 -371230.26 370836.673 .127058E-4 -371231.06  371231.06 371623.851 -742066.93
                   370443.084 371606.766 -742131.06 370524.293 371606.766 -742131.06 370524.293 5.07205291 -2.7559275 -2.3161253
                   .348768E-6 -.35051E-3 .392348E-3        0.0   5.030856   1.291847   1.186749   12.53785   11.51784    .103036
                         380.    .054016    .019307     .21252    .381183   1.317654     .00934    .008239   104220.6   2084.412
                          0.0        0.0        0.0        0.0        1.0
 115500     .1155  67159.3845 -400205.32 333045.937 67159.3845 -400205.32 333045.937 67159.3845 -400205.32 333045.937        0.0
                          0.0        0.0 67166.9181 -400208.32 333041.407 67057.3081 -400189.24 333131.936 467375.243 -733249.73
                   265874.489 467364.706 -733251.26 265886.553 467364.706 -733251.26 265886.553 5.31583439 -2.4248294 -2.8910049
                   .757171E-4 -.38918E-3 .313461E-3        0.0   5.030856   1.291847   1.186749   12.53785   11.51784    .103036
                         380.    .054016    .019307     .21252    .381183   1.317654     .00934    .008239   104220.6   2084.412
                          0.0        0.0        0.0        0.0        1.0
 116000      .116  132231.078 -419316.08 287084.998 132231.078 -419316.08 287084.998 132231.078 -419316.08 287084.998        0.0
                          0.0        0.0 132208.083 -419330.62  287122.54 132463.443 -419293.44 286829.997 551538.706 -706453.16
                   154914.457 551547.154 -706401.07  154853.92 551547.154 -706401.07  154853.92 5.15723263 -2.0807414 -3.0764911
                   .151354E-3  -.4498E-3 .327498E-3        0.0   5.030856   1.291847   1.186749   12.53785   11.51784    .103036
                         380.    .054016    .019307     .21252    .381183   1.317654     .00934    .008239   104220.6   2084.412
                          0.0        0.0        0.0        0.0        1.0
 116500     .1165   194225.75  -428105.5 233879.746  194225.75  -428105.5 233879.746  194225.75  -428105.5 233879.746        0.0
                          0.0        0.0 194190.796 -428112.58 233921.784 194607.888 -428073.24 233465.353 622303.377 -662034.36
                    39730.988 622331.246 -661985.24  39653.996 622331.246 -661985.24  39653.996 4.66441709 -1.7312929 -2.9331241
                   .198989E-3  -.4386E-3 .239536E-3        0.0   5.030856   1.291847   1.186749   12.53785   11.51784    .103036
                         380.    .054016    .019307     .21252    .381183   1.317654     .00934    .008239   104220.6   2084.412
                          0.0        0.0        0.0        0.0        1.0
 117000      .117   251728.26 -426348.72 174620.463  251728.26 -426348.72 174620.463  251728.26 -426348.72 174620.463        0.0
                          0.0        0.0 251707.972 -426339.48 174631.509 251960.441 -426312.46 174352.016 678047.452 -600970.99
                   -77076.463 678076.983 -600969.19 -77107.798 678076.983 -600969.19 -77107.798 4.12042149 -1.3779844 -2.7424371
                   .269943E-3 -.44877E-3 .178844E-3        0.0   5.030856   1.291847   1.186749   12.53785   11.51784    .103036
                         380.    .054016    .019307     .21252    .381183   1.317654     .00934    .008239   104220.6   2084.412
                          0.0        0.0        0.0        0.0        1.0
 117500     .1175  303209.886 -414083.43 110873.544 303209.886 -414083.43 110873.544 303209.886 -414083.43 110873.544        0.0
                          0.0        0.0 303218.011 -414067.75 110849.742 303108.891 -414054.45 110945.554 717285.765  -524917.5
                   -192368.27 717293.316 -524956.97 -192336.34 717293.316 -524956.97 -192336.34 3.80506765  -1.021209 -2.7838588
                   .344901E-3 -.44347E-3 .113204E-3        0.0   5.030856   1.291847   1.186749   12.53785   11.51784    .103036
                         380.    .054016    .019307     .21252    .381183   1.317654     .00934    .008239   104220.6   2084.412
                          0.0        0.0        0.0        0.0        1.0
 118000      .118  347155.545 -391616.52 44460.9707 347155.545 -391616.52 44460.9707 347155.545 -391616.52 44460.9707        0.0
                          0.0        0.0 347183.412 -391610.23 44426.8185 346793.795 -391601.04 44807.2447 738793.643 -436037.05
                   -302756.59  738772.06 -436077.49 -302694.57  738772.06 -436077.49 -302694.57  3.7837701  -.6667042  -3.117066
                   .388946E-3 -.42402E-3 .496097E-4        0.0   5.030856   1.291847   1.186749   12.53785   11.51784    .103036
                         380.    .054016    .019307     .21252    .381183   1.317654     .00934    .008239   104220.6   2084.412
                          0.0        0.0        0.0        0.0        1.0
 118500     .1185  382292.853 -359512.99 -22779.859 382292.853 -359512.99 -22779.859 382292.853 -359512.99 -22779.859        0.0
                          0.0        0.0 382317.385 -359519.94 -22797.448 381939.485 -359505.12 -22434.368 741837.321 -336722.49
                   -405114.83 741805.848 -336733.14 -405072.71 741805.848 -336733.14 -405072.71 3.86493301 -.32806312   -3.53687
                   .416278E-3 -.33538E-3  -.2276E-4        0.0   5.030856   1.291847   1.186749   12.53785   11.51784    .103036
                         380.    .054016    .019307     .21252    .381183   1.317654     .00934    .008239   104220.6   2084.412
                          0.0        0.0        0.0        0.0        1.0
 119000      .119  407768.807 -318570.16  -89198.65 407768.807 -318570.16  -89198.65 407768.807 -318570.16  -89198.65        0.0
                          0.0        0.0 407770.561 -318579.38  -89191.18 407680.557 -318556.98 -89123.572 726349.942  -229388.2
                   -496961.74 726338.964 -229371.51 -496967.46 726338.964 -229371.51 -496967.46 3.75582174 -.02269443 -3.7331275
                   .439872E-3  -.3369E-3 -.88438E-4        0.0   5.030856   1.291847   1.186749   12.53785   11.51784    .103036
                         380.    .054016    .019307     .21252    .381183   1.317654     .00934    .008239   104220.6   2084.412
                          0.0        0.0        0.0        0.0        1.0
 119500     .1195  423158.554 -269790.27 -153368.29 423158.554 -269790.27 -153368.29 423158.554 -269790.27 -153368.29        0.0
                          0.0        0.0 423135.789 -269789.83 -153345.96  423383.18 -269764.92 -153618.26 692925.618 -116443.87
                   -576481.75 692948.823 -116421.98 -576526.84 692948.823 -116421.98 -576526.84 3.29411107 .235969641  -3.530081
                   .424046E-3 -.26746E-3 -.15654E-3        0.0   5.030856   1.291847   1.186749   12.53785   11.51784    .103036
                         380.    .054016    .019307     .21252    .381183   1.317654     .00934    .008239   104220.6   2084.412
                          0.0        0.0        0.0        0.0        1.0
  % % % % % %   Suspended simulation;  plot data space exhausted;  SPY SPACE is required.   LIMBUF =  840000.
  % % % % % %   Suspended simulation;  plot data space exhausted;  SPY SPACE is required.   LIMBUF =  840000.
  +++  Time-sharing disabled.   Send  user-keyed interrupt to silence alarm.
   Current values.  INDBUF  INDBEG  LIMBUF  MFLUSH  NUMDCD  KCARD1  KCARD2
                    839994      50  840000    1007     230       1     231
Plot timespan now in memory (in sec) = 1.04985997E-01   1.19985000E-01
   ++++  Begin plot-data copy from memory to disk.   MFLUSH, INDBUF, N4, Tbeg,  Tend = 1008  839994       1  -1.00000E+00
1.00000E+19
 120000       .12  428317.528 -214361.09 -213956.44 428317.528 -214361.09 -213956.44 428317.528 -214361.09 -213956.44        0.0
                          0.0        0.0 428286.547 -214351.39 -213935.16 428660.705 -214330.35 -214330.35 642637.937 -416.23135
                   -642221.71 642678.615 -404.64582 -642273.97 642678.615 -404.64582 -642273.97 2.57621206  .44379508 -3.0200075
                   .478998E-3 -.22779E-3 -.22203E-3        0.0   5.030856   1.291847   1.186749   12.53785   11.51784    .103036
                         380.    .054016    .019307     .21252    .381183   1.317654     .00934    .008239   104220.6   2084.412
                          0.0        0.0        0.0        0.0        1.0

Extrema of output variables follow.   Order and column positioning are the same as for the preceding time-step loop output.
Variable maxima :  429391.997  429799.28 605740.435 429391.997  429799.28 605740.435 429391.997  429799.28 620214.865        0.0
                          0.0        0.0  429493.57 429796.302 617743.304 428660.705 428660.703 428660.703 743493.162 745985.471
                   762347.353 743472.644 745837.646 748222.914 745240.987 745837.646 765183.739 29.2573278 131.662482 305.604338
                   .485698E-3 .483873E-3 .679791E-3        0.0   5.030856   1.291847   1.186749   12.53785   11.51784    .103036
                         380.    .054016    .019307     .21252    .381183   1.317654     .00934    .008239   104220.6   2084.412
                          0.0        0.0        0.0        0.0        1.0
Times of maxima :     .079994     .06667    .054155    .079994     .06667    .054155    .079994     .06667    .054135        0.0
                          0.0        0.0    .079981    .066687    .054153        0.0    .006667    .113333    .078345    .064899
                      .054152    .078361    .064916    .054155     .05832    .064916    .054135    .054211    .054214    .054077
                       .09996    .086548    .054166        0.0        0.0        0.0        0.0        0.0        0.0        0.0
                          0.0        0.0        0.0        0.0        0.0        0.0        0.0        0.0        0.0        0.0
                          0.0        0.0        0.0        0.0        0.0
Variable minima :   -429332.1 -463257.96 -431342.11  -429332.1 -463257.96 -431342.11  -429332.1 -475412.03 -431342.11        0.0
                          0.0        0.0 -429404.45 -473216.06 -431432.15 -428660.71  -428660.7  -428660.7 -744010.44 -.109096E7
                   -747092.86 -743936.65   -.1069E7  -746921.4 -743936.65  -.10956E7  -746921.4 -38.962626  -266.9486 -160.83691
                   -.48583E-3 -.51274E-3 -.48506E-3        0.0   5.030856   1.291847   1.186749   12.53785   11.51784    .103036
                         380.    .054016    .019307     .21252    .381183   1.317654     .00934    .008239   104220.6   2084.412
                          0.0        0.0        0.0        0.0        1.0
Times of minima :     .069891    .054155    .063263    .069891    .054155    .063263    .069891    .054136    .063263        0.0
                          0.0        0.0    .069876    .054153    .063279        .01    .016667    .103333    .068273    .054153
                       .06166    .068256    .054155    .061643    .068256    .054136    .061643    .054072    .054078    .054214
                      .110004    .054155    .063191        0.0        0.0        0.0        0.0        0.0        0.0        0.0
                          0.0        0.0        0.0        0.0        0.0        0.0        0.0        0.0        0.0        0.0
                          0.0        0.0        0.0        0.0        0.0

Blank card terminating all plot cards.            |BLANK PLOT

Memory storage figures for the preceding, now-completed data case.  -------------------------------  Present   Program
A value of  "-9999"  indicates that no figure is available.         28-Feb-22  20:20:25              figure     limit  (name)
     Size List 1.   Number of electric network nodes.                                                   37      6000  (LBUS)
     Size List 2.   Number of electric network branches.                                                39     10000  (LBRNCH)
     Size List 3.   Number of data values in R, L, C tables.                                            45    192000  (LDATA)
     Size List 4.   Number of electric network sources.                                                  3       900  (LEXCT)
     Size List 5.   Storage for [Y] and triangularized [Y].   No. times =    3     Factors =    66     189    420000  (LYMAT)
     Size List 6.   Number of entries in switch table.                  No. flops = 18                  21      1200  (LSWTCH)
     Size List 7.   Number of distinct ALPHANUMERIC data names plus program SPY variables.              25     15000  (LSIZE7)
     Size List 8.   History points of distributed lines.                                                67    120000  (LPAST)
     Size List 9.   Number of nonlinear elements.                                                        0      2250  (LNONL)
     Size List 10.  Points of nonlinear characteristics.                                                 0      3800  (LCHAR)
     Size List 11.  Number of Type-59 S.M. outputs.                                                      0       720  (LSMOUT)
     Size List 12.  Total number of EMTP output variables.                                              55      2000  (LSIZ12)
     Size List 13.  Working space for batch/SPY plotting.                                            -9999     72800  (LSIZ13)
     Size List 14.  S.M./U.M. connections to TACS.                                                   -9999       510  (LBSTAC)
     Size List 15.  Character storage in bytes for MODELS.                                            3297     90000  (LCTACS)
     Size List 16.  Total number of Type-59 S.M. masses.                                                 0       800  (LIMASS)
     Size List 17.  Number of Type-59 Synchronous machines.                                              0        90  (LSYN)
     Size List 18.  Branch and switch power/energy outputs.                                              0       254  (MAXPE)
     Size List 19.  Total floating-point TACS table space.                                              23    120000  (LTACST)
     Size List 20.  Non-copied recursive convolution data.                                               0    100000  (LFSEM)
     Size List 21.  Total modal/phase [T] matrix storage.                                                9      3000  (LFD)
     Size List 22.  Total recursive convolution history.                                                 0     15000  (LHIST)
     Size List 23.  Giant vectors for renumbering, phasors;  also extrema accumulation.                  93    192000  (LSIZ23)
     Size List 24.  Peak phases of compensation for data.                                                0       120  (LCOMP)
     Size List 25.  Total table space for all U.M usage.                                             -9999     45000  (LSPCUM)
     Size List 26.  Square of max number of coupled phases.                                              9    260000  (LSIZ26)
     Size List 27.  Maximum number of MODELS top variables.                                             44       600  (LSIZ27)
     Size List 28.  MODELS.  Total work space is divided into INTEGER and REAL.  1st, REAL:           1780    210000  (LRTACS)
                             Second  and last,  statistics for INTEGER work space.                    6838         0  (LITACS)
     Size List 29.  RAM disk used by "TAPSAV" table saving (limit is "LABCOM" size LTLABL).          -9999       600  (LSIZ29)
     Size List 30.  Taku Noda frequency-dependent circuits.                                              0        19  (LSIZ30)
Timing figures characterizing central processor (CP) solution speed.  ----------------------------   CP sec  Wait sec  Real sec
     Data input time (through blank card ending branches) ....                                       0.031     0.000     0.031
     Node renumbering and phasor solution  ....                                                      0.031     0.000     0.031
     After phasor solution, but before time-step loop  ....                                          0.000     0.000     0.000
     Integration of equations (time-step loop)  ....                                                 0.844     0.000     0.844
     Plotting or STATISTICS termination overlays ....                                                0.000     0.000     0.000
                                                                                                    ---------------------------
                                                                                          Totals      0.906     0.000     0.906

