   ---   236   cards of disk file read into card cache cells  1   onward.
 Comment card is ignored.      |C   LBUS  LBRNCH   LDATA   LEXCT   LYMAT  LSWTCH
 Limit CIDEAL cards =   200    |CARDS        200 { Limit of CIDEAL will be 2 mor
 1st card (Lists  1-10).       |    6000   10000  192000     900  420000    120
 Comment card is ignored.      |C LSMOUT  LSIZ12  LSIZ13  LBSTAC  LCTACS  LIMASS
 2nd card (Lists 11-20).       |     720    2000   72800     510   90000     80
 Comment card is ignored.      |C    LFD   LHIST  LSIZ23   NCOMP  LSPCUM  LSIZ26
 3rd card (Lists 21-30).       |    3000   15000  192000     120   45000  26000
 4th card (Lists 31-32).       |     200     300     { Optional card for Lists
 Comment card is ignored.      |C  LWORK  LMARTI
 Supplemental offsets.         |  840000     742
 <===> Done with  "/"-card sorting by data class.    Remember that the source file appears different from interpreted input data.
Alternative Transients Program (ATP),  GNU Linux or DOS.  All rights reserved by Can/Am user group of Portland, Oregon, USA.
 Date (dd-mth-yy) and time of day (hh.mm.ss) = 28-Feb-22  21:10:14   Name of disk plot file is  p\bdfinalisima\energizacion4391.pl4
Consult the 860-page ATP Rule Book of the Can/Am EMTP User Group in Portland,  Oregon, USA.  Source code date is 12 August 2008.
Total size of LABCOM tables = 10913436 INTEGER words.  31 VARDIM  List Sizes follow:  6002  10K  192K  900  420K  1200  15K
  120K  2250  3800  720  2K  72800  510  90K  800  90  254  120K  100K  3K  15K  192K  120  45K  260K  600  210K  1100  60  200
--------------------------------------------------+--------------------------------------------------------------------------------
Descriptive interpretation of input data cards.   |  Input data card images are shown below, all 80 columns, character by character
                                                  0         1         2         3         4         5         6         7         8
                                                  012345678901234567890123456789012345678901234567890123456789012345678901234567890
--------------------------------------------------+--------------------------------------------------------------------------------
Comment card.   NUMDCD = 1.                       |C data:D:\ATP\BDFINALISIMA\ENERGIZACION4391.ATP
Marker card preceding new EMTP data case.         |BEGIN NEW DATA CASE
Comment card.   NUMDCD = 3.                       |C --------------------------------------------------------
Comment card.   NUMDCD = 4.                       |C Generated by ATPDRAW  febrero, lunes 28, 2022
Comment card.   NUMDCD = 5.                       |C A Bonneville Power Administration program
Comment card.   NUMDCD = 6.                       |C by H. K. Høidalen at SEfAS/NTNU - NORWAY 1994-2016
Comment card.   NUMDCD = 7.                       |C --------------------------------------------------------
Comment card.   NUMDCD = 8.                       |C  dT  >< Tmax >< Xopt >< Copt ><Epsiln>
Misc. data.     1.000E-06   1.200E-01   5.000E+01 |   1.E-6     .12     50.
Misc. data.    500    1  0  1  1  0  0  0  0  0   |     500       1       0       1       1       0       0       0       0
  ///  Warning.  Nonzero XOPT or COPT differs from the power frequency of  6.00000000E+01  Hz.   Did the user really want this?
No TACS data,  but MODELS data begins (next).     |MODELS
      Another ordinary MODELS data card.          |OUTPUT
      Another ordinary MODELS data card.          |  AnVol
      Another ordinary MODELS data card.          |  LONG
      Another ordinary MODELS data card.          |  R0F
      Another ordinary MODELS data card.          |  R1F
      Another ordinary MODELS data card.          |  X0F
      Another ordinary MODELS data card.          |  X1F
      Another ordinary MODELS data card.          |  RDIVX
      Another ordinary MODELS data card.          |  RINSER
      Another ordinary MODELS data card.          |  CLOSE1
      Another ordinary MODELS data card.          |  RPpos
      Another ordinary MODELS data card.          |  RPcero
      Another ordinary MODELS data card.          |  LPpos
      Another ordinary MODELS data card.          |  LPcero
      Another ordinary MODELS data card.          |  CPpos
      Another ordinary MODELS data card.          |  CPcero
      Another ordinary MODELS data card.          |  Xp
      Another ordinary MODELS data card.          |  CR
      Another ordinary MODELS data card.          |  SIMET
      Another ordinary MODELS data card.          |  ENC1
      Another ordinary MODELS data card.          |  ENC2
      Another ordinary MODELS data card.          |  ENC1AS
      Another ordinary MODELS data card.          |  ENC2AS
      Another ordinary MODELS data card.          |MODEL DEFAULT
      Another ordinary MODELS data card.          |DATA AnVol,LONG,R0F,R1F,X0F,X1F,RDIVX,RINSER,CLOSE1,RPpos,RPcero,LPpos,LPcero
      Another ordinary MODELS data card.          |OUTPUT o1,o2,o3, o4, o5, o6, o7, o8, o9, o10, o11, o12, o13
      Another ordinary MODELS data card.          |VAR o1,o2,o3, o4, o5, o6, o7, o8, o9, o10, o11, o12, o13
      Another ordinary MODELS data card.          |INIT
      Another ordinary MODELS data card.          |  o1:=AnVol
      Another ordinary MODELS data card.          |  o2:=LONG
      Another ordinary MODELS data card.          |  o3:=R0F
      Another ordinary MODELS data card.          |  o4:=R1F
      Another ordinary MODELS data card.          |  o5:=X0F
      Another ordinary MODELS data card.          |  O6:=X1F
      Another ordinary MODELS data card.          |  o7:=RDIVX
      Another ordinary MODELS data card.          |  o8:=RINSER
      Another ordinary MODELS data card.          |  o9:=CLOSE1
      Another ordinary MODELS data card.          |  o10:=RPpos
      Another ordinary MODELS data card.          |  o11:=RPcero
      Another ordinary MODELS data card.          |  o12:=LPpos
      Another ordinary MODELS data card.          |  o13:=LPcero
      Another ordinary MODELS data card.          |
      Another ordinary MODELS data card.          |ENDINIT
      Another ordinary MODELS data card.          |EXEC
      Another ordinary MODELS data card.          |ENDEXEC
      Another ordinary MODELS data card.          |ENDMODEL
      Another ordinary MODELS data card.          |MODEL DEFAULT1
      Another ordinary MODELS data card.          |DATA CPpos,CPcero,Xp,CR,SIMET,ENC1,ENC2,ENC1AS,ENC2AS
      Another ordinary MODELS data card.          |OUTPUT o1, o2, o3, o4, o5, o6, o7, o8, o9
      Another ordinary MODELS data card.          |VAR o1, o2, o3, o4, o5, o6, o7, o8, o9
      Another ordinary MODELS data card.          |INIT
      Another ordinary MODELS data card.          |  o1:=CPpos
      Another ordinary MODELS data card.          |  o2:=CPcero
      Another ordinary MODELS data card.          |  o3:=Xp
      Another ordinary MODELS data card.          |  o4:=CR
      Another ordinary MODELS data card.          |  o5:=SIMET
      Another ordinary MODELS data card.          |  o6:=ENC1
      Another ordinary MODELS data card.          |  o7:=ENC2
      Another ordinary MODELS data card.          |  o8:=ENC1AS
      Another ordinary MODELS data card.          |  o9:=ENC2AS
      Another ordinary MODELS data card.          |
      Another ordinary MODELS data card.          |ENDINIT
      Another ordinary MODELS data card.          |EXEC
      Another ordinary MODELS data card.          |ENDEXEC
      Another ordinary MODELS data card.          |ENDMODEL
      Another ordinary MODELS data card.          |USE DEFAULT AS DEFAULT
      Another ordinary MODELS data card.          |DATA
      Another ordinary MODELS data card.          |  AnVol:=      0.0
      Another ordinary MODELS data card.          |  LONG:= 171.9482
      Another ordinary MODELS data card.          |  R0F:= 2.004493
      Another ordinary MODELS data card.          |  R1F:= 1.636446
      Another ordinary MODELS data card.          |  X0F:=  8.76185
      Another ordinary MODELS data card.          |  X1F:= 7.153074
      Another ordinary MODELS data card.          |  RDIVX:= 0.228775
      Another ordinary MODELS data card.          |  RINSER:=     360.
      Another ordinary MODELS data card.          |  CLOSE1:= 0.047882
      Another ordinary MODELS data card.          |  RPpos:= 0.026476
      Another ordinary MODELS data card.          |  RPcero:= 0.217339
      Another ordinary MODELS data card.          |  LPpos:= 0.301098
      Another ordinary MODELS data card.          |  LPcero:= 1.009199
      Another ordinary MODELS data card.          |OUTPUT
      Another ordinary MODELS data card.          |  AnVol:=o1
      Another ordinary MODELS data card.          |  LONG:=o2
      Another ordinary MODELS data card.          |  R0F:=o3
      Another ordinary MODELS data card.          |  R1F:=o4
      Another ordinary MODELS data card.          |  X0F:=o5
      Another ordinary MODELS data card.          |  X1F:=o6
      Another ordinary MODELS data card.          |  RDIVX:=o7
      Another ordinary MODELS data card.          |  RINSER:=o8
      Another ordinary MODELS data card.          |  CLOSE1:=o9
      Another ordinary MODELS data card.          |  RPpos:=o10
      Another ordinary MODELS data card.          |  RPcero:=o11
      Another ordinary MODELS data card.          |  LPpos:=o12
      Another ordinary MODELS data card.          |  LPcero:=o13
      Another ordinary MODELS data card.          |ENDUSE
      Another ordinary MODELS data card.          |USE DEFAULT1 AS DEF
      Another ordinary MODELS data card.          |DATA
      Another ordinary MODELS data card.          |  CPpos:= 0.017699
      Another ordinary MODELS data card.          |  CPcero:= 0.007618
      Another ordinary MODELS data card.          |  Xp:= 1609.139
      Another ordinary MODELS data card.          |  CR:= 32.18277
      Another ordinary MODELS data card.          |  SIMET:=       1.
      Another ordinary MODELS data card.          |  ENC1:=      0.0
      Another ordinary MODELS data card.          |  ENC2:=      0.0
      Another ordinary MODELS data card.          |  ENC1AS:=      0.0
      Another ordinary MODELS data card.          |  ENC2AS:=      0.0
      Another ordinary MODELS data card.          |OUTPUT
      Another ordinary MODELS data card.          |  CPpos:=o1
      Another ordinary MODELS data card.          |  CPcero:=o2
      Another ordinary MODELS data card.          |  Xp:=o3
      Another ordinary MODELS data card.          |  CR:=o4
      Another ordinary MODELS data card.          |  SIMET:=o5
      Another ordinary MODELS data card.          |  ENC1:=o6
      Another ordinary MODELS data card.          |  ENC2:=o7
      Another ordinary MODELS data card.          |  ENC1AS:=o8
      Another ordinary MODELS data card.          |  ENC2AS:=o9
      Another ordinary MODELS data card.          |ENDUSE
      Another ordinary MODELS data card.          |RECORD
      Another ordinary MODELS data card.          |  DEFAULT.o1 AS AnVOL
      Another ordinary MODELS data card.          |  DEFAULT.o2 AS LONG
      Another ordinary MODELS data card.          |  DEFAULT.o3 AS R0F
      Another ordinary MODELS data card.          |  DEFAULT.o4 AS R1F
      Another ordinary MODELS data card.          |  DEFAULT.o5 AS X0F
      Another ordinary MODELS data card.          |  DEFAULT.o6 AS X1F
      Another ordinary MODELS data card.          |  DEFAULT.o7 AS RDIVX
      Another ordinary MODELS data card.          |  DEFAULT.o8 AS RINSER
      Another ordinary MODELS data card.          |  DEFAULT.o9 AS CLOSE1
      Another ordinary MODELS data card.          |  DEFAULT.o10 AS RPpos
      Another ordinary MODELS data card.          |  DEFAULT.o11 AS RPcero
      Another ordinary MODELS data card.          |  DEFAULT.o12 AS LPpos
      Another ordinary MODELS data card.          |  DEFAULT.o13 AS LPcero
      Another ordinary MODELS data card.          |  DEF.o1 AS CPpos
      Another ordinary MODELS data card.          |  DEF.o2 AS CPcero
      Another ordinary MODELS data card.          |  DEF.o3 AS Xp
      Another ordinary MODELS data card.          |  DEF.o4 AS CR
      Another ordinary MODELS data card.          |  DEF.o5 AS SIMET
      Another ordinary MODELS data card.          |  DEF.o6 AS ENC1
      Another ordinary MODELS data card.          |  DEF.o7 AS ENC2
      Another ordinary MODELS data card.          |  DEF.o8 AS ENC1AS
      Another ordinary MODELS data card.          |  DEF.o9 AS ENC2AS
Termination of data for Laurent Dube`s MODELS.    |ENDMODELS
Comment card.   NUMDCD = 153.                     |C        1         2         3         4         5         6         7         8
Comment card.   NUMDCD = 154.                     |C 345678901234567890123456789012345678901234567890123456789012345678901234567890
Optional blank card follows last of MODELS data.  |BLANK MODELS
Comment card.   NUMDCD = 156.                     |C < n1 >< n2 ><ref1><ref2>< R  >< L  >< C  >
Comment card.   NUMDCD = 157.                     |C < n1 >< n2 ><ref1><ref2>< R  >< A  >< B  ><Leng><><>0
1st of coupled R-L.   2.00450E+00  2.78898E-02    |51IFUENASB1A              2.00458.7618497459
2nd coil. 1.636E+00 2.277E-02 0.000E+00 0.000E+00 |52IFUENBSB1B              1.63647.1530744187
Zca, Zcc= 1.227E-01 1.707E-03 1.759E+00 2.448E-02 |53IFUENCSB1C
Series R-L-C.   1.000E+09  0.000E+00  0.000E+00   |  SB1A                      1.E9                                               0
Series R-L-C.   1.000E+09  0.000E+00  0.000E+00   |  SB1B                      1.E9                                               0
Series R-L-C.   1.000E+09  0.000E+00  0.000E+00   |  SB1C                      1.E9                                               0
Series R-L-C.   1.000E+09  0.000E+00  0.000E+00   |  RSNSHA                    1.E9                                               0
Series R-L-C.   1.000E+09  0.000E+00  0.000E+00   |  RSNSHB                    1.E9                                               0
Series R-L-C.   1.000E+09  0.000E+00  0.000E+00   |  RSNSHC                    1.E9                                               0
Series R-L-C.   1.000E+09  0.000E+00  0.000E+00   |  RSNNHA                    1.E9                                               0
Series R-L-C.   1.000E+09  0.000E+00  0.000E+00   |  RSNNHB                    1.E9                                               0
Series R-L-C.   1.000E+09  0.000E+00  0.000E+00   |  RSNNHC                    1.E9                                               0
Series R-L-C.   1.000E+09  0.000E+00  0.000E+00   |  SE2A                      1.E9                                               0
Series R-L-C.   1.000E+09  0.000E+00  0.000E+00   |  SE2B                      1.E9                                               0
Series R-L-C.   1.000E+09  0.000E+00  0.000E+00   |  SE2C                      1.E9                                               0
Series R-L-C.   2.500E+02  0.000E+00  3.000E-10   |  X0001B                    250.       .0003                                   0
Series R-L-C.   2.500E+02  0.000E+00  3.000E-10   |  X0002B                    250.       .0003                                   0
Series R-L-C.   1.000E-06  0.000E+00  0.000E+00   |  X0001ALN1A               1.E-6                                               0
Series R-L-C.   1.000E-06  0.000E+00  0.000E+00   |  SB1A  X0002A             1.E-6                                               0
Series R-L-C.   1.000E-06  0.000E+00  0.000E+00   |  X0001BLN1B               1.E-6                                               0
Series R-L-C.   1.000E-06  0.000E+00  0.000E+00   |  SB1B  X0002B             1.E-6                                               0
Series R-L-C.   1.000E-06  0.000E+00  0.000E+00   |  X0001CLN1C               1.E-6                                               0
Series R-L-C.   1.000E-06  0.000E+00  0.000E+00   |  SB1C  X0002C             1.E-6                                               0
Series R-L-C.   3.600E+02  0.000E+00  0.000E+00   |  XX0005X0002A              360.                                               0
Series R-L-C.   3.600E+02  0.000E+00  0.000E+00   |  XX0003X0002B              360.                                               0
Series R-L-C.   3.600E+02  0.000E+00  0.000E+00   |  XX0004X0002C              360.                                               0
Series R-L-C.   2.500E+02  0.000E+00  3.000E-10   |  X0001A                    250.       .0003                                   0
Series R-L-C.   1.000E+06  0.000E+00  0.000E+00   |  X0001AX0002A              1.E6                                               0
Series R-L-C.   1.000E+06  0.000E+00  0.000E+00   |  X0001BX0002B              1.E6                                               0
Series R-L-C.   1.000E+06  0.000E+00  0.000E+00   |  X0001CX0002C              1.E6                                               0
Series R-L-C.   2.500E+02  0.000E+00  3.000E-10   |  X0002C                    250.       .0003                                   0
Series R-L-C.   2.500E+02  0.000E+00  3.000E-10   |  X0002A                    250.       .0003                                   0
Series R-L-C.   2.500E+02  0.000E+00  3.000E-10   |  X0001C                    250.       .0003                                   0
Series R-L-C.   1.250E+02  0.000E+00  6.000E-10   |  X0001AX0002A              125.       .0006                                   0
Series R-L-C.   1.250E+02  0.000E+00  6.000E-10   |  X0001BX0002B              125.       .0006                                   0
Series R-L-C.   1.250E+02  0.000E+00  6.000E-10   |  X0001CX0002C              125.       .0006                                   0
 2.173E-01 1.009E+00 7.620E-03 6.493E+02 8.507E-04|-1LN1A  VFF2A             .217341.0092.00762171.95 0 0                         0
 2.648E-02 3.011E-01 1.770E-02 2.327E+02 7.082E-04|-2LN1B  VFF2B             .02648 .3011 .0177171.95 0 0                         0
3rd or later transposed distributed phase.        |-3LN1C  VFF2C                                                                  0
Blank card ending branches.  IBR, NTOT = 39  31   |BLANK BRANCH
Comment card.   NUMDCD = 198.                     |C < n 1>< n 2>< Tclose ><Top/Tde ><   Ie   ><Vf/CLOP ><  type  >
Switch.  -1.00E+00  1.00E+01  0.00E+00  0.00E+00  |  LN1A  COMPA        -1.       10.                                             0
Switch.  -1.00E+00  1.00E+01  0.00E+00  0.00E+00  |  LN1B  COMPB        -1.       10.                                             0
Switch.  -1.00E+00  1.00E+01  0.00E+00  0.00E+00  |  LN1C  COMPC        -1.       10.                                             0
Switch.  -1.00E+00  1.00E+01  0.00E+00  0.00E+00  |  VFF2A RSNNHA       -1.       10.                                             0
Switch.  -1.00E+00  1.00E+01  0.00E+00  0.00E+00  |  VFF2B RSNNHB       -1.       10.                                             0
Switch.  -1.00E+00  1.00E+01  0.00E+00  0.00E+00  |  VFF2C RSNNHC       -1.       10.                                             0
Switch.   2.00E+00 -1.00E+00  0.00E+00  0.00E+00  |  VFF2A SE2A          2.       -1.                                             0
Switch.   2.00E+00 -1.00E+00  0.00E+00  0.00E+00  |  VFF2B SE2B          2.       -1.                                             0
Switch.   2.00E+00 -1.00E+00  0.00E+00  0.00E+00  |  VFF2C SE2C          2.       -1.                                             0
Switch.   4.79E-02  1.00E+03  0.00E+00  0.00E+00  |  X0001BXX0003.047881723      1.E3                                             0
Switch.   4.79E-02  1.00E+03  0.00E+00  0.00E+00  |  X0001CXX0004.047881723      1.E3                                             0
Switch.   5.54E-02  1.00E+03  0.00E+00  0.00E+00  |  XX0005X0002A.055381723      1.E3                                             0
Switch.   5.54E-02  1.00E+03  0.00E+00  0.00E+00  |  XX0003X0002B.055381723      1.E3                                             0
Switch.   5.54E-02  1.00E+03  0.00E+00  0.00E+00  |  XX0004X0002C.055381723      1.E3                                             0
Switch.   4.79E-02  1.00E+03  0.00E+00  0.00E+00  |  X0001AXX0005.047881723      1.E3                                             0
Permanently-closed switch used for metering.      |  VFUENAIFUENA                                        MEASURING                1
Permanently-closed switch used for metering.      |  VFUENBIFUENB                                        MEASURING                1
Permanently-closed switch used for metering.      |  VFUENCIFUENC                                        MEASURING                1
Permanently-closed switch used for metering.      |  COMPA RSNSHA                                        MEASURING                1
Permanently-closed switch used for metering.      |  COMPB RSNSHB                                        MEASURING                1
Permanently-closed switch used for metering.      |  COMPC RSNSHC                                        MEASURING                1
Blank card ending switches.   KSWTCH = 21.        |BLANK SWITCH
Comment card.   NUMDCD = 221.                     |C < n 1><>< Ampl.  >< Freq.  ><Phase/T0><   A1   ><   T1   >< TSTART >< TSTOP  >
Source.   4.29E+05  5.00E+01  0.00E+00 -1.00E+00  |14VFUENA  428660.705       50.                                     -1.      100.
Source.   4.29E+05  5.00E+01 -1.20E+02 -1.00E+00  |14VFUENB  428660.705       50.     -120.                           -1.      100.
Source.   4.29E+05  5.00E+01 -2.40E+02 -1.00E+00  |14VFUENC  428660.705       50.     -240.                           -1.      100.
Blank card ends electric sources.  KCONST = 3     |BLANK SOURCE
Pi-equivalent branches of distributed circuits are added to the table of List Size 3 between indices  40   and  45.

Sinusoidal steady-state phasor solution, branch by branch.   All flows are away from a bus,  and the real part,  magnitude,  or  "P"
is printed above the imaginary part,  the angle,  or  "Q".   The first solution frequency  =  5.00000000E+01  Hertz.
  Bus K                        Phasor  node  voltage              Phasor  branch  current               Power flow       Power loss
             Bus M         Rectangular            Polar          Rectangular            Polar            P  and  Q        P  and  Q

 IFUENA                    428660.705       428660.705      .42892596493307  .44583572270931      91931.853260508  .16263319806275
                                  0.0              0.0      .12162240028042       15.8307396        -26067.371924        0.7109065

            SB1A      428660.87307963  428660.87309208      -.4289259649331  .44583572270931      -91931.69062731
                      -3.267162243095       -0.0004367      -.1216224002804     -164.1692604      26068.082830481

 IFUENB                  -214330.3525       428660.705      -.1091348941594  .44583572271447      91931.853261794  .16263319806722
                      -371231.0601341     -120.0000000      -.4322719821191     -104.1692604      -26067.37192351        0.7109065

            SB1B      -214333.2659853  428660.87309208      .10913489415942  .44583572271447       -91931.6906286
                      -371229.5721143     -120.0004367      .43227198211906       75.8307396      26068.082829995

 IFUENC                  -214330.3525       428660.705      -.3197910707782  .44583572271112      91931.853261024  .16263319806382
                      371231.06013415      120.0000000      .31064958183761      135.8307396       -26067.3719236        0.7109065

            SB1C      -214327.6070943  428660.87309208       .3197910707782  .44583572271112      -91931.69062783
                       371232.8392765      119.9995633      -.3106495818376      -44.1692604      26068.082830078

 SB1A                 428660.87307963  428660.87309208      .42866087308E-3  .42866087309E-3      91.875072060033  91.875072060033
                      -3.267162243095       -0.0004367      -.3267162243E-8       -0.0004367      .3001673007E-19        0.0000000

            TERRA                 0.0              0.0      -.4286608731E-3  .42866087309E-3                  0.0
                                  0.0              0.0      .32671622431E-8      179.9995633                  0.0

 SB1B                 -214333.2659853  428660.87309208       -.214333266E-3  .42866087309E-3      91.875072060033  91.875072060033
                      -371229.5721143     -120.0004367      -.3712295721E-3     -120.0004367      -.340005801E-15        0.0000000

            TERRA                 0.0              0.0      .21433326599E-3  .42866087309E-3                  0.0
                                  0.0              0.0      .37122957211E-3       59.9995633                  0.0

 SB1C                 -214327.6070943  428660.87309208      -.2143276071E-3  .42866087309E-3      91.875072060033  91.875072060033
                       371232.8392765      119.9995633      .37123283928E-3      119.9995633      -.370883879E-14        0.0000000

            TERRA                 0.0              0.0      .21432760709E-3  .42866087309E-3                  0.0
                                  0.0              0.0      -.3712328393E-3      -60.0004367                  0.0

 RSNSHA                84.26818537238  448.53359736309      .84268185372E-7  .44853359736E-6      .10059119398E-3  .10059119398E-3
                      -440.5465479351      -79.1712108      -.4405465479E-6      -79.1712108      -.144260299E-20        0.0000000

            TERRA                 0.0              0.0      -.8426818537E-7  .44853359736E-6                  0.0
                                  0.0              0.0      .44054654794E-6      100.8287892                  0.0

 RSNSHB               -423.6585947475  448.53359736309      -.4236585947E-6  .44853359736E-6      .10059119398E-3  .10059119398E-3
                      147.29488470425      160.8287892       .1472948847E-6      160.8287892      .9198248412E-21        0.0000000

            TERRA                 0.0              0.0      .42365859475E-6  .44853359736E-6                  0.0
                                  0.0              0.0      -.1472948847E-6      -19.1712108                  0.0

 RSNSHC               339.39040937513  448.53359736309      .33939040938E-6  .44853359736E-6      .10059119398E-3  .10059119398E-3
                      293.25166323084       40.8287892      .29325166323E-6       40.8287892      .3096964213E-20        0.0000000

            TERRA                 0.0              0.0      -.3393904094E-6  .44853359736E-6                  0.0
                                  0.0              0.0      -.2932516632E-6     -139.1712108                  0.0

 RSNNHA                85.39773370683  459.86850006206      .85397733707E-7  .45986850006E-6      .10573951867E-3  .10573951867E-3
                      -451.8697427656      -79.2980339      -.4518697428E-6      -79.2980339      -.152366669E-20        0.0000000

            TERRA                 0.0              0.0      -.8539773371E-7  .45986850006E-6                  0.0
                                  0.0              0.0      .45186974277E-6      100.7019661                  0.0

 RSNNHB                 -434.02954329  459.86850006206      -.4340295433E-6  .45986850006E-6      .10573951867E-3  .10573951867E-3
                      151.97826456708      160.7019661      .15197826457E-6      160.7019661         -.810637E-21        0.0000000

            TERRA                 0.0              0.0      .43402954329E-6  .45986850006E-6                  0.0
                                  0.0              0.0      -.1519782646E-6      -19.2980339                  0.0

 RSNNHC               348.63180958315  459.86850006206      .34863180958E-6  .45986850006E-6      .10573951867E-3  .10573951867E-3
                      299.89147819854       40.7019661       .2998914782E-6       40.7019661      .1955454968E-20        0.0000000

            TERRA                 0.0              0.0      -.3486318096E-6  .45986850006E-6                  0.0
                                  0.0              0.0      -.2998914782E-6     -139.2980339                  0.0

 X0001B               -423.6585948914  448.53359736382      -.1388315659E-4  .42273295619E-4      .22337894031E-6  .22337894031E-6
                      147.29488429259      160.8287892      -.3992855477E-4     -109.1725608      -.0094804966756       -0.0094805

            TERRA                 0.0              0.0      .13883156587E-4  .42273295619E-4                  0.0
                                  0.0              0.0      .39928554766E-4       70.8274392                  0.0

 X0002B               -214333.2659852  428660.87309165       .0349870869155  .04040033548237       .2040233883859   .2040233883859
                      -371229.5721138     -120.0004367       -.020201258779      -30.0017867       -8659.02153813    -8659.0215381

            TERRA                 0.0              0.0      -.0349870869155  .04040033548237                  0.0
                                  0.0              0.0      .02020125877899      149.9982133                  0.0

 X0001A               84.268185800835  448.53359736382      .42845456960094  .43608376757725      .16324339166864  .95084526173E-7
                      -440.5465478539      -79.1712108      .08121412520268       10.7331528      -97.79897427107        0.0000000

            LN1A       84.26818537238  448.53359736309      -.4284545696009  .43608376757725      -.1632432965841
                      -440.5465479351      -79.1712108      -.0812141252027     -169.2668472      97.798974271072

 SB1A                 428660.87307963  428660.87309208      .42846659198403  .44539379152508      91833.233022602  .99187815294E-7
                      -3.267162243095       -0.0004367      .12162240370373       15.8468607      -26068.08281378              0.0

            X0002A     428660.8730792  428660.87309165       -.428466591984  .44539379152508       -91833.2330225
                      -3.267162364718       -0.0004367      -.1216224037037     -164.1531393      26068.082813777

 X0001B               -423.6585948914  448.53359736382      -.1438937715648  .43608377007567       .1632390002557  .95084527262E-7
                      147.29488429259      160.8287892      -.4116596130643     -109.2668447      -97.79897483872              0.0

            LN1B      -423.6585947475  448.53359736309      .14389377156476  .43608377007567      -.1632389051712
                      147.29488470425      160.8287892      .41165961306433       70.7331553      97.798974838716

 SB1B                 -214333.2659853  428660.87309208      -.1089065335691  .44541999515388      91838.329266358  .99199489512E-7
                      -371229.5721143     -120.0004367      -.4319008439779     -104.1524656      -26070.69630715        0.0000000

            X0002B    -214333.2659852  428660.87309165       .1089065335691  .44541999515388      -91838.32926626
                      -371229.5721138     -120.0004367      .43190084397793       75.8475344       26070.69630715

 X0001C               339.39040909057  448.53359736382      -.2845607696145  .43608374570495       .1632423432266  .95084516635E-7
                      293.25166356129       40.8287892      .33044545943994      130.7331534      -97.79896936758              0.0

            LN1C      339.39040937513  448.53359736309      .28456076961447  .43608374570495      -.1632422481421
                      293.25166323084       40.8287892      -.3304454594399      -49.2668466      97.798969367585

 SB1C                 -214327.6070943  428660.87309208      -.3195600584149  .44538941176814      91832.177605583  .99185861302E-7
                       371232.8392765      119.9995633      .31024683266878      135.8471956      -26068.36327513              0.0

            X0002C     -214327.607094  428660.87309165      .31956005841494  .44538941176814      -91832.17760548
                      371232.83927619      119.9995633      -.3102468326688      -44.1528044      26068.363275125

 XX0005                428660.8730792  428660.87309165                  0.0              0.0                  0.0              0.0
                      -3.267162364718       -0.0004367                  0.0              0.0                  0.0              0.0

            X0002A     428660.8730792  428660.87309165                  0.0              0.0                  0.0
                      -3.267162364718       -0.0004367                  0.0              0.0                  0.0

 XX0003               -214333.2659852  428660.87309165                  0.0              0.0                  0.0              0.0
                      -371229.5721138     -120.0004367                  0.0              0.0                  0.0              0.0

            X0002B    -214333.2659852  428660.87309165                  0.0              0.0                  0.0
                      -371229.5721138     -120.0004367                  0.0              0.0                  0.0

 XX0004                -214327.607094  428660.87309165                  0.0              0.0                  0.0              0.0
                      371232.83927619      119.9995633                  0.0              0.0                  0.0              0.0

            X0002C     -214327.607094  428660.87309165                  0.0              0.0                  0.0
                      371232.83927619      119.9995633                  0.0              0.0                  0.0

 X0001A               84.268185800835  448.53359736382      .41520721057E-4  .42273295619E-4      .22337894031E-6  .22337894031E-6
                      -440.5465478539      -79.1712108      .79411110944E-5       10.8274392      -.0094804966756       -0.0094805

            TERRA                 0.0              0.0      -.4152072106E-4  .42273295619E-4                  0.0
                                  0.0              0.0      -.7941111094E-5     -169.1725608                  0.0

 X0001A               84.268185800835  448.53359736382      -.4285766048934  .42857682797279      -17.96136552366  91839.048737608
                      -440.5465478539      -79.1712108      -.4372793855E-3     -179.9415408      94.422396258612        0.0000000

            X0002A     428660.8730792  428660.87309165       .4285766048934  .42857682797279      91857.010103132
                      -3.267162364718       -0.0004367      .43727938549E-3        0.0584592      -94.42239625861

 X0001B               -423.6585948914  448.53359736382      .21390960739032  .42857682797279      -17.96136552366  91839.048737608
                      147.29488429259      160.8287892      .37137686699812       60.0584592      94.422396258613        0.0000000

            X0002B    -214333.2659852  428660.87309165      -.2139096073903  .42857682797279      91857.010103132
                      -371229.5721138     -120.0004367      -.3713768669981     -119.9415408      -94.42239625861

 X0001C               339.39040909057  448.53359736382      .21466699750309  .42857682797279      -17.96136552366  91839.048737608
                      293.25166356129       40.8287892      -.3709395876126      -59.9415408      94.422396258613        0.0000000

            X0002C     -214327.607094  428660.87309165      -.2146669975031  .42857682797279      91857.010103132
                      371232.83927619      119.9995633      .37093958761263      120.0584592      -94.42239625861

 X0002C                -214327.607094  428660.87309165      -.0349883467488  .04040033548237      .20402338838547  .20402338838547
                      371232.83927619      119.9995633      -.0201990766837     -150.0017867       -8659.02153813    -8659.0215381

            TERRA                 0.0              0.0      .03498834674877  .04040033548237                  0.0
                                  0.0              0.0      .02019907668374       29.9982133                  0.0

 X0002A                428660.8730792  428660.87309165      .12598332767E-5  .04040033548237        .204023388386    .204023388386
                      -3.267162364718       -0.0004367      .04040033546273       89.9982133       -8659.02153813    -8659.0215381

            TERRA                 0.0              0.0      -.1259833277E-5  .04040033548237                  0.0
                                  0.0              0.0      -.0404003354627      -90.0017867                  0.0

 X0001C               339.39040909057  448.53359736382      -.2763756447E-4  .42273295619E-4      .22337894031E-6  .22337894031E-6
                      293.25166356129       40.8287892      .31987443672E-4      130.8274392      -.0094804966756       -0.0094805

            TERRA                 0.0              0.0      .27637564471E-4  .42273295619E-4                  0.0
                                  0.0              0.0      -.3198744367E-4      -49.1725608                  0.0

 X0001A               84.268185800835  448.53359736382      .80521775561E-4  .08078482883306      17.798122603136  .40788678559921
                      -440.5465478539      -79.1712108      -.0807847887033      -89.9428908      3.3860569970387   -17311.2528400

            X0002A     428660.8730792  428660.87309165      -.8052177556E-4  .08078482883306      -17.39023581754
                      -3.267162364718       -0.0004367      .08078478870326       90.0571092      -17314.63889699

 X0001B               -423.6585948914  448.53359736382      -.0700019401442  .08078482883306      17.798122603136  .40788678560012
                      147.29488429259      160.8287892      .04032266044844      150.0571092      3.3860569970387   -17311.2528400

            X0002B    -214333.2659852  428660.87309165      .07000194014416  .08078482883306      -17.39023581754
                      -371229.5721138     -120.0004367      -.0403226604484      -29.9428908      -17314.63889699

 X0001C               339.39040909057  448.53359736382       .0699214183686  .08078482883306      17.798122603136  .40788678559803
                      293.25166356129       40.8287892      .04046212825483       30.0571092      3.3860569970388   -17311.2528400

            X0002C     -214327.607094  428660.87309165      -.0699214183686  .08078482883306      -17.39023581754
                      371232.83927619      119.9995633      -.0404621282548     -149.9428908      -17314.63889699

 LN1A                  84.26818537238  448.53359736309      .42845447175176  .43608376002462      .16313439881181  .16302865929313
                      -440.5465479351      -79.1712108      .08121460086177       10.7332166      -97.79897275897      -97.7989728

            VFF2A      85.39773370683  459.86850006206      -.8539773483E-7  .45986850009E-6      -.1057395187E-3
                      -451.8697427656      -79.2980339      .45186974258E-6      100.7019662      .2618732966E-12

 LN1B                 -423.6585947475  448.53359736309      -.1438933283714  .43608376002462      .16313439881177  .16302865929314
                      147.29488470425      160.8287892      -.4116597573329     -109.2667834      -97.79897275898      -97.7989728

            VFF2B       -434.02954329  459.86850006206      .43402954316E-6  .45986849988E-6      -.1057395186E-3
                      151.97826456708      160.7019661      -.1519782644E-6      -19.2980339       .291773062E-13

 LN1C                 339.39040937513  448.53359736309      -.2845611433804  .43608376002462      .16313439881202  .16302865929339
                      293.25166323084       40.8287892      .33044515647118      130.7332166      -97.79897275898      -97.7989728

            VFF2C     348.63180958315  459.86850006206      -.3486318093E-6  .45986849988E-6      -.1057395186E-3
                      299.89147819854       40.7019661      -.2998914782E-6     -139.2980339      .4979806723E-13
     Total network loss  P-loss  by summing injections =   2.757884211204E+05

Output for steady-state phasor switch currents.
      Node-K    Node-M            I-real            I-imag            I-magn          Degrees        Power            Reactive
      LN1A      COMPA         9.35454584E-08   -4.53219449E-07    4.62772754E-07     -78.3378    1.03773585E-04   -1.50957410E-06
      LN1B      COMPB        -3.76627634E-07    1.45569778E-07    4.03780801E-07     158.8681    9.05016089E-05    3.09828188E-06
      LN1C      COMPC         3.71699410E-07    3.04504308E-07    4.80503200E-07      39.3251    1.07723805E-04    2.82781426E-06
      VFF2A     RSNNHA        8.53977350E-08   -4.51869742E-07    4.59868500E-07     -79.2980    1.05739519E-04   -3.11627116E-13
      VFF2B     RSNNHB       -4.34029543E-07    1.51978265E-07    4.59868500E-07     160.7020    1.05739519E-04    4.54922027E-14
      VFF2C     RSNNHC        3.48631809E-07    2.99891479E-07    4.59868500E-07      40.7020    1.05739519E-04   -1.95445524E-13
      VFF2A     SE2A              Open              Open              Open             Open          Open              Open
      VFF2B     SE2B              Open              Open              Open             Open          Open              Open
      VFF2C     SE2C              Open              Open              Open             Open          Open              Open
      X0001B    XX0003            Open              Open              Open             Open          Open              Open
      X0001C    XX0004            Open              Open              Open             Open          Open              Open
      XX0005    X0002A            Open              Open              Open             Open          Open              Open
      XX0003    X0002B            Open              Open              Open             Open          Open              Open
      XX0004    X0002C            Open              Open              Open             Open          Open              Open
      X0001A    XX0005            Open              Open              Open             Open          Open              Open
      VFUENA    IFUENA        4.28925965E-01    1.21622400E-01    4.45835723E-01      15.8307    9.19318533E+04   -2.60673719E+04
      VFUENB    IFUENB       -1.09134894E-01   -4.32271982E-01    4.45835723E-01    -104.1693    9.19318533E+04   -2.60673719E+04
      VFUENC    IFUENC       -3.19791071E-01    3.10649582E-01    4.45835723E-01     135.8307    9.19318533E+04   -2.60673719E+04
      COMPA     RSNSHA        9.35454584E-08   -4.53219449E-07    4.62772754E-07     -78.3378    1.03773585E-04   -1.50957410E-06
      COMPB     RSNSHB       -3.76627634E-07    1.45569778E-07    4.03780801E-07     158.8681    9.05016089E-05    3.09828188E-06
      COMPC     RSNSHC        3.71699410E-07    3.04504308E-07    4.80503200E-07      39.3251    1.07723805E-04    2.82781426E-06

Solution at nodes with known voltage.   Nodes that are shorted together by switches are shown as a group of names, with the printed
result applying to the composite group.   The entry "MVA" is  SQRT( P**2 + Q**2 )  in units of power,  while  "P.F."  is the
associated power factor.
              Node                Source  node  voltage             Injected  source  current              Injected  source  power
              name         Rectangular            Polar          Rectangular            Polar            P  and  Q    MVA and P.F.

               VFUENA
              IFUENA       428660.705       428660.705      .42892596493171  .44583572270605      91931.853260215   95556.12760468
                                  0.0              0.0      .12162240027326       15.8307396      -26067.37192246        0.9620718

               VFUENB
              IFUENB     -214330.3525       428660.705      -.1091348941602  .44583572271559      91931.853262056  95556.127606724
                      -371231.0601341     -120.0000000        -.43227198212     -104.1692604      -26067.37192347        0.9620718

               VFUENC
              IFUENC     -214330.3525       428660.705       -.319791070775  .44583572270662      91931.853260097  95556.127604803
                      371231.06013415      120.0000000      .31064958183448      135.8307396      -26067.37192333        0.9620718

  +++  Node  "COMPC "  has no connected linear branches.  Add (to ground) the conductance  G = 1.00000000E-18  mhos.
  +++  Node  "COMPB "  has no connected linear branches.  Add (to ground) the conductance  G = 1.00000000E-18  mhos.
  +++  Node  "COMPA "  has no connected linear branches.  Add (to ground) the conductance  G = 1.00000000E-18  mhos.
Card of names for time-step loop output.          |  LN1A  LN1B  LN1C  COMPA COMPB COMPC SB1A  SB1B  SB1C  SE2A  SE2B  SE2C  VFF2A
Card of names for time-step loop output.          |  VFF2B VFF2C IFUENAIFUENBIFUENC
Card of names for time-step loop output.          |-5VFF2A VFF2B VFF2B VFF2C VFF2C VFF2A LN1A  LN1B  LN1B  LN1C  LN1C  LN1A
Card of names for time-step loop output.          |-5SB1A  SB1B  SB1B  SB1C  SB1C  SB1A
Blank card ending requests for output variables.  |BLANK OUTPUT

Column headings for the  55   EMTP output variables follow.  These are divided among the 5 possible classes as follows ....
  First  27     output variables are electric-network voltage differences (upper voltage minus lower voltage);
  Next   6     output variables are branch currents (flowing from the upper node to the lower node);
  Next   22     output variables belong to MODELS (with "MODELS" an internally-added upper name of pair).
   Step      Time      LN1A       LN1B       LN1C       COMPA      COMPB      COMPC      SB1A       SB1B       SB1C       SE2A
 

                       SE2B       SE2C       VFF2A      VFF2B      VFF2C      IFUENA     IFUENB     IFUENC     VFF2A      VFF2B
                                                                                                               VFF2B      VFF2C

                       VFF2C      LN1A       LN1B       LN1C       SB1A       SB1B       SB1C       VFUENA     VFUENB     VFUENC
                       VFF2A      LN1B       LN1C       LN1A       SB1B       SB1C       SB1A       IFUENA     IFUENB     IFUENC

                       COMPA      COMPB      COMPC      MODELS     MODELS     MODELS     MODELS     MODELS     MODELS     MODELS
                       RSNSHA     RSNSHB     RSNSHC     ANVOL      LONG       R0F        R1F        X0F        X1F        RDIVX

                       MODELS     MODELS     MODELS     MODELS     MODELS     MODELS     MODELS     MODELS     MODELS     MODELS
                       RINSER     CLOSE1     RPPOS      RPCERO     LPPOS      LPCERO     CPPOS      CPCERO     XP         CR

                       MODELS     MODELS     MODELS     MODELS     MODELS
                       SIMET      ENC1       ENC2       ENC1AS     ENC2AS
 ***      Phasor I(0) =  9.3545458E-08                     Switch  "LN1A  "  to  "COMPA "  closed in the steady-state.
 ***      Phasor I(0) = -3.7662763E-07                     Switch  "LN1B  "  to  "COMPB "  closed in the steady-state.
 ***      Phasor I(0) =  3.7169941E-07                     Switch  "LN1C  "  to  "COMPC "  closed in the steady-state.
 ***      Phasor I(0) =  8.5397735E-08                     Switch  "VFF2A "  to  "RSNNHA"  closed in the steady-state.
 ***      Phasor I(0) = -4.3402954E-07                     Switch  "VFF2B "  to  "RSNNHB"  closed in the steady-state.
 ***      Phasor I(0) =  3.4863181E-07                     Switch  "VFF2C "  to  "RSNNHC"  closed in the steady-state.
 ***      Phasor I(0) =  4.2892596E-01                     Switch  "VFUENA"  to  "IFUENA"  closed in the steady-state.
 ***      Phasor I(0) = -1.0913489E-01                     Switch  "VFUENB"  to  "IFUENB"  closed in the steady-state.
 ***      Phasor I(0) = -3.1979107E-01                     Switch  "VFUENC"  to  "IFUENC"  closed in the steady-state.
 ***      Phasor I(0) =  9.3545458E-08                     Switch  "COMPA "  to  "RSNSHA"  closed in the steady-state.
 ***      Phasor I(0) = -3.7662763E-07                     Switch  "COMPB "  to  "RSNSHB"  closed in the steady-state.
 ***      Phasor I(0) =  3.7169941E-07                     Switch  "COMPC "  to  "RSNSHC"  closed in the steady-state.
      0       0.0  84.2681854 -423.65859 339.390409 84.2681854 -423.65859 339.390409 428660.873 -214333.27 -214327.61        0.0
                          0.0        0.0 85.3977337 -434.02954  348.63181 428660.705 -214330.35 -214330.35 519.427277 -782.66135
                   263.234076  507.92678   -763.049 255.122224 642994.139  -5.658891 -642988.48 .428925965 -.10913489 -.31979107
                   .935455E-7 -.37663E-6 .371699E-6        0.0   171.9482   2.004493   1.636446    8.76185   7.153074    .228775
                         360.    .047882    .026476    .217339    .301098   1.009199    .017699    .007618   1609.139   32.18277
                          1.0        0.0        0.0        0.0        0.0
    500     .5E-3   152.14738 -441.48466 289.337279  152.14738 -441.48466 289.337279 423383.858 -153621.37 -269762.49        0.0
                          0.0        0.0 155.034346 -452.46055 297.426208  423383.18 -153618.26 -269764.92   607.4949 -749.88676
                   142.391862 593.632039 -730.82194 137.189899 577005.226 116141.121 -693146.35 .404620005 -.04016931 -.36445069
                   .164337E-6 -.48004E-6 .287313E-6        0.0   171.9482   2.004493   1.636446    8.76185   7.153074    .228775
                         360.    .047882    .026476    .217339    .301098   1.009199    .017699    .007618   1609.139   32.18277
                          1.0        0.0        0.0        0.0        0.0
   1000     .1E-2  216.280177 -448.43989 232.159711 216.280177 -448.43989 232.159711 407681.726 -89126.803 -318554.92        0.0
                          0.0        0.0 220.853485 -459.75049 238.897004 407680.557 -89123.572 -318556.98 680.603973 -698.64749
                    18.043519 664.720065  -680.5996 15.8795344 496808.529 229428.121 -726236.65  .37035011 .029785794  -.4001359
                   .223255E-6 -.48506E-6 .233384E-6        0.0   171.9482   2.004493   1.636446    8.76185   7.153074    .228775
                         360.    .047882    .026476    .217339    .301098   1.009199    .017699    .007618   1609.139   32.18277
                          1.0        0.0        0.0        0.0        0.0
   1500     .0015  275.087356 -444.35301 169.265653 275.087356 -444.35301 169.265653 381941.117 -22437.639 -359503.48        0.0
                          0.0        0.0  281.23451 -455.71985 174.485335 381939.485 -22434.368 -359505.12 736.954355 -630.20518
                   -106.74918 719.440366 -613.61866  -105.8217 404378.756 337065.839  -741444.6 .326961186 .099007365 -.42596855
                    .26783E-6 -.48142E-6 .185188E-6        0.0   171.9482   2.004493   1.636446    8.76185   7.153074    .228775
                         360.    .047882    .026476    .217339    .301098   1.009199    .017699    .007618   1609.139   32.18277
                          1.0        0.0        0.0        0.0        0.0
   2000      .002  327.121159 -429.32477 102.203611 327.121159 -429.32477 102.203611 346795.852 44804.0129 -391599.86        0.0
                          0.0        0.0  334.69059 -440.46786 105.777271 346793.795 44807.2448 -391601.04 775.158451 -546.24513
                   -228.91332 756.445929 -531.52838 -224.91755 301991.839 436403.878 -738395.72 .275521009 .165791238 -.44131225
                    .33576E-6 -.45703E-6 .107029E-6        0.0   171.9482   2.004493   1.636446    8.76185   7.153074    .228775
                         360.    .047882    .026476    .217339    .301098   1.009199    .017699    .007618   1609.139   32.18277
                          1.0        0.0        0.0        0.0        0.0
   2500     .0025  371.100063 -403.72508 32.6250187 371.100063 -403.72508 32.6250187  303111.32 110942.442 -414053.76        0.0
                          0.0        0.0   379.9055 -414.37011 34.4646145 303108.891 110945.554 -414054.45 794.275615 -448.83473
                   -345.44089 774.825145  -436.3501 -338.47504 192168.878 524996.204 -717165.08 .217296953   .2284926 -.44578955
                     .3629E-6 -.43151E-6 .330838E-7        0.0   171.9482   2.004493   1.636446    8.76185   7.153074    .228775
                         360.    .047882    .026476    .217339    .301098   1.009199    .017699    .007618   1609.139   32.18277
                          1.0        0.0        0.0        0.0        0.0
   3000      .003  405.941246 -368.18435 -37.756896 405.941246 -368.18435 -37.756896 251963.182   174349.1 -426312.28        0.0
                          0.0        0.0 415.765828 -378.06917 -37.696662 251960.441 174352.016 -426312.46 793.834995 -340.37251
                   -453.46249 774.125596 -330.42745 -443.69814 77614.0818 600661.382 -678275.46 .153722243 .285567755    -.43929
                   .424718E-6 -.39413E-6 -.37686E-7        0.0   171.9482   2.004493   1.636446    8.76185   7.153074    .228775
                         360.    .047882    .026476    .217339    .301098   1.009199    .017699    .007618   1609.139   32.18277
                          1.0        0.0        0.0        0.0        0.0
   3500     .0035  430.786807 -323.57769 -107.20912 430.786807 -323.57769 -107.20912 194610.875 233462.704 -428073.58        0.0
                          0.0        0.0 441.388656 -332.45892 -108.92973 194607.888 233465.353 -428073.24 773.847578 -223.52919
                   -550.31839 754.364497 -216.36857 -537.99593 -38851.829 661536.283 -622684.45 .086362303 .335611325 -.42197363
                   .464527E-6 -.32667E-6 -.10942E-6        0.0   171.9482   2.004493   1.636446    8.76185   7.153074    .228775
                         360.    .047882    .026476    .217339    .301098   1.009199    .017699    .007618   1609.139   32.18277
                          1.0        0.0        0.0        0.0        0.0
   4000      .004  445.024976 -271.00347  -174.0215 445.024976 -271.00347  -174.0215 132466.602 286827.682 -419294.28        0.0
                          0.0        0.0 456.143049 -278.66245  -177.4806 132463.443 286829.997 -419293.44   734.8055 -101.18185
                   -633.62365  716.02845 -96.981971 -619.04648 -154361.08 706121.966 -551760.89 .016875838 .377391029 -.39426687
                   .468578E-6 -.30829E-6 -.18872E-6        0.0   171.9482   2.004493   1.636446    8.76185   7.153074    .228775
                         360.    .047882    .026476    .217339    .301098   1.009199    .017699    .007618   1609.139   32.18277
                          1.0        0.0        0.0        0.0        0.0
   4500     .0045  448.305148 -211.75626 -236.54889 448.305148 -211.75626 -236.54889 67060.5612  333130.01 -400190.57        0.0
                          0.0        0.0 459.665641 -218.00435 -241.66129 67057.3081 333131.936 -400189.24 677.669992  23.656937
                   -701.32693 660.061409 24.7926273 -684.85404 -266069.45 733320.582 -467251.13 -.05302611 .409878084 -.35685198
                   .445159E-6 -.22831E-6  -.2453E-6        0.0   171.9482   2.004493   1.636446    8.76185   7.153074    .228775
                         360.    .047882    .026476    .217339    .301098   1.009199    .017699    .007618   1609.139   32.18277
                          1.0        0.0        0.0        0.0        0.0
   5000      .005  440.546564  -147.2949 -293.25167 440.546564  -147.2949 -293.25167 3.26701276 371229.572 -371232.84        0.0
                          0.0        0.0 451.869836 -151.97832 -299.89151 -.45661E-7  371231.06 -371231.06 603.848158 147.913193
                   -751.76135 587.841462  145.95677 -733.79823 -371226.31 742462.411 -371236.11  -.1216224 .432272595 -.31065019
                   .461933E-6  -.1685E-6 -.29342E-6        0.0   171.9482   2.004493   1.636446    8.76185   7.153074    .228775
                         360.    .047882    .026476    .217339    .301098   1.009199    .017699    .007618   1609.139   32.18277
                          1.0        0.0        0.0        0.0        0.0
   5500     .0055  421.940255 -79.206644 -342.73361 421.940255 -79.206644 -342.73361 -67054.107  400188.23 -333134.12        0.0
                          0.0        0.0 432.947342 -82.209996 -350.73735 -67057.308 400189.244 -333131.94 515.157338  268.52735
                   -783.68469 501.146899 263.526967 -764.67387 -467242.34 733322.352 -266080.01 -.18722394 .444023115 -.25679917
                   .454638E-6 -.81891E-7 -.34436E-6        0.0   171.9482   2.004493   1.636446    8.76185   7.153074    .228775
                         360.    .047882    .026476    .217339    .301098   1.009199    .017699    .007618   1609.139   32.18277
                          1.0        0.0        0.0        0.0        0.0
   6000      .006  392.944371 -9.1680655 -383.77631 392.944371 -9.1680655 -383.77631 -132460.39 419292.925 -286832.54        0.0
                          0.0        0.0 403.364333 -10.417428 -392.94691 -132463.44  419293.44   -286830. 413.781761 382.529478
                   -796.31124 402.112437  374.60824 -776.72068 -551753.31 706125.463 -154372.15 -.24821538 .444840299 -.19662492
                   .430524E-6 -.97647E-8 -.40297E-6        0.0   171.9482   2.004493   1.636446    8.76185   7.153074    .228775
                         360.    .047882    .026476    .217339    .301098   1.009199    .017699    .007618   1609.139   32.18277
                          1.0        0.0        0.0        0.0        0.0
   6500     .0065  354.272907 61.0962648 -415.36917 354.272907 61.0962648 -415.36917 -194605.05 428073.237 -233468.18        0.0
                          0.0        0.0  363.84912 61.6316607 -425.48078 -194607.89  428073.24 -233465.35 302.217459 487.112441
                    -789.3299 293.176642 476.465436 -769.64208 -622678.29 661541.422 -38863.131 -.30309498 .434704064 -.13160908
                   .372481E-6 .662365E-7 -.45291E-6        0.0   171.9482   2.004493   1.636446    8.76185   7.153074    .228775
                         360.    .047882    .026476    .217339    .301098   1.009199    .017699    .007618   1609.139   32.18277
                          1.0        0.0        0.0        0.0        0.0
   7000      .007  306.878065 129.856201 -436.73427 306.878065 129.856201 -436.73427  -251957.9 426312.965 -174355.07        0.0
                          0.0        0.0 315.374784 132.163155 -447.53794 -251960.44 426312.457 -174352.02 183.211629 579.701094
                   -762.91272 177.021865 566.590467 -743.61233 -678270.86 600668.035  77602.827 -.35051136 .413863964  -.0633526
                   .347406E-6 .130937E-6 -.47835E-6        0.0   171.9482   2.004493   1.636446    8.76185   7.153074    .228775
                         360.    .047882    .026476    .217339    .301098   1.009199    .017699    .007618   1609.139   32.18277
                          1.0        0.0        0.0        0.0        0.0
   7500     .0075  251.926878 195.418634 -447.34551 251.926878 195.418634 -447.34551  -303106.7 414055.454 -110948.75        0.0
                          0.0        0.0 259.134863 199.440362 -458.57523 -303108.89 414054.446 -110945.55 59.6945014 658.015587
                   -717.71009  56.508244 642.764145 -699.27239 -717162.15 525004.207 192157.946 -.38929695 .382833138  .00646381
                   .250608E-6 .195569E-6 -.44619E-6        0.0   171.9482   2.004493   1.636446    8.76185   7.153074    .228775
                         360.    .047882    .026476    .217339    .301098   1.009199    .017699    .007618   1609.139   32.18277
                          1.0        0.0        0.0        0.0        0.0
   8000      .008  190.772391 256.169233 -446.94162 190.772391 256.169233 -446.94162 -346792.01 391602.522 -44810.512        0.0
                          0.0        0.0 196.514169 261.806682 -458.32085  -346793.8  391601.04 -44807.245 -65.292514 720.127533
                   -654.83502 -65.396842 703.110857 -637.71402 -738394.53 436413.034 301981.499  -.4184968 .342375717 .076121087
                   .208206E-6 .277389E-6 -.45719E-6        0.0   171.9482   2.004493   1.636446    8.76185   7.153074    .228775
                         360.    .047882    .026476    .217339    .301098   1.009199    .017699    .007618   1609.139   32.18277
                          1.0        0.0        0.0        0.0        0.0
   8500     .0085  124.920397 310.612119 -435.53252 124.920397 310.612119 -435.53252 -381938.15 359507.037  22431.114        0.0
                          0.0        0.0 129.054651 317.726458 -446.78111 -381939.48 359505.117 22434.3679 -188.67181 764.507566
                   -575.83576 -185.69172 746.144636 -560.45291 -741445.19 337075.923 404369.265 -.43739187 .293487865 .143904007
                   .127901E-6 .326785E-6 -.48315E-6        0.0   171.9482   2.004493   1.636446    8.76185   7.153074    .228775
                         360.    .047882    .026476    .217339    .301098   1.009199    .017699    .007618   1609.139   32.18277
                          1.0        0.0        0.0        0.0        0.0
   9000      .009  55.9926035 357.406625 -413.39923 55.9926035 357.406625 -413.39923 -407679.71 318559.296 89120.4111        0.0
                          0.0        0.0 58.4173817 365.822753 -424.24013 -407680.56 318556.985  89123.572 -307.40537 790.062887
                   -482.65752 -301.41402 770.805854 -469.39183   -726239. 229438.885 496800.118  -.4455169 .237373369 .208143534
                   .592346E-7 .365211E-6 -.44578E-6        0.0   171.9482   2.004493   1.636446    8.76185   7.153074    .228775
                         360.    .047882    .026476    .217339    .301098   1.009199    .017699    .007618   1609.139   32.18277
                          1.0        0.0        0.0        0.0        0.0
   9500     .0095  -14.314014 395.400651 -381.08664 -14.314014 395.400651 -381.08664 -423382.84 269767.567 153615.268        0.0
                          0.0        0.0 -13.658322 404.911271 -391.25295 -423383.18 269764.922 153618.258 -418.56959  796.16422
                   -377.59463 -409.71467 776.487288 -366.77262  -693150.4 116152.299 576998.103 -.44267181 .175413942 .267257864
                   -.14854E-7 .434398E-6 -.42311E-6        0.0   171.9482   2.004493   1.636446    8.76185   7.153074    .228775
                         360.    .047882    .026476    .217339    .301098   1.009199    .017699    .007618   1609.139   32.18277
                          1.0        0.0        0.0        0.0        0.0
  10000       .01   -84.26812 423.658564 -339.39044  -84.26812 423.658564 -339.39044 -428660.87 214333.266 214327.607        0.0
                          0.0        0.0 -85.397708 434.029538 -348.63183 -428660.71 214330.353 214330.352 -519.42725 782.661368
                   -263.23412 -507.92668 763.049009 -255.12232 -642994.14 5.65890139  642988.48 -.42892664 .109135231 .319791409
                   -.83142E-7  .43622E-6 -.35309E-6        0.0   171.9482   2.004493   1.636446    8.76185   7.153074    .228775
                         360.    .047882    .026476    .217339    .301098   1.009199    .017699    .007618   1609.139   32.18277
                          1.0        0.0        0.0        0.0        0.0
  10500     .0105  -152.14734 441.484644  -289.3373 -152.14734 441.484644  -289.3373 -423383.86 153621.368 269762.489        0.0
                          0.0        0.0 -155.03433 452.460557 -297.42623 -423383.18 153618.258 269764.922 -607.49488  749.88679
                   -142.39191 -593.63199 730.821945 -137.18996 -577005.23 -116141.12 693146.347 -.40461996 .040169289 .364450669
                   -.16699E-6 .438686E-6 -.32855E-6        0.0   171.9482   2.004493   1.636446    8.76185   7.153074    .228775
                         360.    .047882    .026476    .217339    .301098   1.009199    .017699    .007618   1609.139   32.18277
                          1.0        0.0        0.0        0.0        0.0
  11000      .011  -216.28016  448.43989 -232.15973 -216.28016  448.43989 -232.15973 -407681.73 89126.8027 318554.924        0.0
                          0.0        0.0 -220.85349 459.750495   -238.897 -407680.56  89123.572 318556.985 -680.60399 698.647497
                   -18.043507 -664.72005 680.599625 -15.879579 -496808.53 -229428.12  726236.65 -.37035012 -.02978579 .400135911
                   -.21349E-6 .480297E-6 -.23837E-6        0.0   171.9482   2.004493   1.636446    8.76185   7.153074    .228775
                         360.    .047882    .026476    .217339    .301098   1.009199    .017699    .007618   1609.139   32.18277
                          1.0        0.0        0.0        0.0        0.0
  11500     .0115  -275.08741 444.353039 -169.26562 -275.08741 444.353039 -169.26562 -381941.12 22437.6393 359503.478        0.0
                          0.0        0.0 -281.23449 455.719846 -174.48536 -381939.48 22434.3679 359505.117 -736.95434 630.205203
                   106.749133 -719.44045 613.618664 105.821789 -404378.76 -337065.84 741444.596 -.32696106 -.09900743  .42596849
                   -.29656E-6 .467471E-6  -.1709E-6        0.0   171.9482   2.004493   1.636446    8.76185   7.153074    .228775
                         360.    .047882    .026476    .217339    .301098   1.009199    .017699    .007618   1609.139   32.18277
                          1.0        0.0        0.0        0.0        0.0
  12000      .012  -327.12114 429.324766 -102.20362 -327.12114 429.324766 -102.20362 -346795.85 -44804.013 391599.865        0.0
                          0.0        0.0 -334.69057 440.467866 -105.77729  -346793.8 -44807.245  391601.04 -775.15844  546.24516
                   228.913277 -756.44591  531.52839 224.917518 -301991.84 -436403.88 738395.716 -.27552112 -.16579118 .441312301
                     -.322E-6 .421799E-6 -.11398E-6        0.0   171.9482   2.004493   1.636446    8.76185   7.153074    .228775
                         360.    .047882    .026476    .217339    .301098   1.009199    .017699    .007618   1609.139   32.18277
                          1.0        0.0        0.0        0.0        0.0
  12500     .0125  -371.10004 403.725084 -32.625043 -371.10004 403.725084 -32.625043 -303111.32 -110942.44 414053.762        0.0
                          0.0        0.0 -379.90546 414.370099 -34.464636 -303108.89 -110945.55 414054.446 -794.27556 448.834735
                   345.440827 -774.82513 436.350127 338.474999 -192168.88  -524996.2 717165.083 -.21729693 -.22849261 .445789543
                   -.37592E-6 .438035E-6 -.33653E-7        0.0   171.9482   2.004493   1.636446    8.76185   7.153074    .228775
                         360.    .047882    .026476    .217339    .301098   1.009199    .017699    .007618   1609.139   32.18277
                          1.0        0.0        0.0        0.0        0.0
  13000      .013  -405.94122  368.18434 37.7568827 -405.94122  368.18434 37.7568827 -251963.18  -174349.1 426312.282        0.0
                          0.0        0.0 -415.76581 378.069171 37.6966422 -251960.44 -174352.02 426312.457 -793.83498 340.372529
                   453.462455 -774.12556 330.427458 443.698106 -77614.083 -600661.38 678275.465 -.15372218 -.28556779 .439289969
                   -.40985E-6 .358413E-6 .372129E-7        0.0   171.9482   2.004493   1.636446    8.76185   7.153074    .228775
                         360.    .047882    .026476    .217339    .301098   1.009199    .017699    .007618   1609.139   32.18277
                          1.0        0.0        0.0        0.0        0.0
  13500     .0135  -430.78679 323.577689 107.209103 -430.78679 323.577689 107.209103 -194610.88  -233462.7 428073.579        0.0
                          0.0        0.0 -441.38865 332.458926 108.929724 -194607.89 -233465.35  428073.24 -773.84758 223.529203
                   550.318374 -754.36448 216.368586 537.995894 38851.8291 -661536.28 622684.454 -.08636228 -.33561134 .421973618
                    -.4794E-6 .334227E-6  .11675E-6        0.0   171.9482   2.004493   1.636446    8.76185   7.153074    .228775
                         360.    .047882    .026476    .217339    .301098   1.009199    .017699    .007618   1609.139   32.18277
                          1.0        0.0        0.0        0.0        0.0
  14000      .014  -445.02495 271.003476 174.021478 -445.02495 271.003476 174.021478  -132466.6 -286827.68 419294.284        0.0
                          0.0        0.0 -456.14299 278.662425 177.480566 -132463.44   -286830.  419293.44 -734.80542 101.181859
                   633.623558 -716.02843 96.9819974 619.046433  154361.08 -706121.97 551760.886 -.01687585 -.37739102 .394266874
                   -.45996E-6 .303977E-6 .184387E-6        0.0   171.9482   2.004493   1.636446    8.76185   7.153074    .228775
                         360.    .047882    .026476    .217339    .301098   1.009199    .017699    .007618   1609.139   32.18277
                          1.0        0.0        0.0        0.0        0.0
  14500     .0145  -448.30512 211.756247  236.54887 -448.30512 211.756247  236.54887 -67060.561 -333130.01 400190.572        0.0
                          0.0        0.0 -459.66561 218.004349 241.661262 -67057.308 -333131.94 400189.244 -677.66996 -23.656913
                   701.326872 -660.06136 -24.792623 684.853986 266069.449 -733320.58 467251.133 .053026104 -.40987808 .356851978
                   -.49651E-6 .225542E-6 .242566E-6        0.0   171.9482   2.004493   1.636446    8.76185   7.153074    .228775
                         360.    .047882    .026476    .217339    .301098   1.009199    .017699    .007618   1609.139   32.18277
                          1.0        0.0        0.0        0.0        0.0
  % % % % % %   Suspended simulation;  plot data space exhausted;  SPY SPACE is required.   LIMBUF =  840000.
  % % % % % %   Suspended simulation;  plot data space exhausted;  SPY SPACE is required.   LIMBUF =  840000.
  +++  Time-sharing disabled.   Send  user-keyed interrupt to silence alarm.
   Current values.  INDBUF  INDBEG  LIMBUF  MFLUSH  NUMDCD  KCARD1  KCARD2
                    839994      50  840000    1000     230       1     231
Plot timespan now in memory (in sec) = 0.00000000E+00   1.49990000E-02
   ++++  Begin plot-data copy from memory to disk.   MFLUSH, INDBUF, N4, Tbeg,  Tend = 1001  839994       1  -1.00000E+00
1.00000E+19
  15000      .015  -440.54654 147.294897 293.251645 -440.54654 147.294897 293.251645 -3.2672271 -371229.57 371232.839        0.0
                          0.0        0.0 -451.86975 151.978282 299.891473 -.61533E-6 -371231.06  371231.06 -603.84804 -147.91319
                   751.761227 -587.84144 -145.95675 733.798187 371226.305 -742462.41 371236.107 .121622399 -.43227259 .310650194
                   -.45807E-6 .166634E-6 .291417E-6        0.0   171.9482   2.004493   1.636446    8.76185   7.153074    .228775
                         360.    .047882    .026476    .217339    .301098   1.009199    .017699    .007618   1609.139   32.18277
                          1.0        0.0        0.0        0.0        0.0
  15500     .0155  -421.94023 79.2066473 342.733586 -421.94023 79.2066473 342.733586 67054.1074 -400188.23 333134.122        0.0
                          0.0        0.0 -432.94731 82.2099861 350.737327 67057.3081 -400189.24 333131.936  -515.1573 -268.52734
                   783.684641 -501.14688 -263.52694  764.67382 467242.337 -733322.35 266080.015  .18722394 -.44402311 .256799174
                   -.45281E-6  .81017E-7 .343396E-6        0.0   171.9482   2.004493   1.636446    8.76185   7.153074    .228775
                         360.    .047882    .026476    .217339    .301098   1.009199    .017699    .007618   1609.139   32.18277
                          1.0        0.0        0.0        0.0        0.0
  16000      .016  -392.94436 9.16806371 383.776298 -392.94436 9.16806371 383.776298 132460.387 -419292.93 286832.538        0.0
                          0.0        0.0 -403.36431  10.417427  392.94688 132463.443 -419293.44 286829.997 -413.78173 -382.52945
                   796.311187 -402.11243 -374.60823  776.72066 551753.312 -706125.46 154372.151 .248215389  -.4448403 .196624914
                    -.4349E-6 .100844E-7   .4053E-6        0.0   171.9482   2.004493   1.636446    8.76185   7.153074    .228775
                         360.    .047882    .026476    .217339    .301098   1.009199    .017699    .007618   1609.139   32.18277
                          1.0        0.0        0.0        0.0        0.0
  16500     .0165  -354.27289 -61.096261 415.369153 -354.27289 -61.096261 415.369153 194605.053 -428073.24 233468.184        0.0
                          0.0        0.0 -363.84912 -61.631661 425.480778 194607.888 -428073.24 233465.353 -302.21746 -487.11244
                   789.329895 -293.17663 -476.46541 769.642044  622678.29 -661541.42 38863.1314 .303094987 -.43470407  .13160908
                   -.37414E-6  -.6543E-7 .453758E-6        0.0   171.9482   2.004493   1.636446    8.76185   7.153074    .228775
                         360.    .047882    .026476    .217339    .301098   1.009199    .017699    .007618   1609.139   32.18277
                          1.0        0.0        0.0        0.0        0.0
  17000      .017  -306.87811 -129.85617 436.734275 -306.87811 -129.85617 436.734275 251957.896 -426312.97 174355.069        0.0
                          0.0        0.0 -315.37478 -132.16315  447.53793 251960.441 -426312.46 174352.016 -183.21162 -579.70108
                   762.912707 -177.02194 -566.59044  743.61238 678270.862 -600668.03 -77602.827 .350511363 -.41386396 .063352601
                   -.30139E-6 -.12611E-6 .484346E-6        0.0   171.9482   2.004493   1.636446    8.76185   7.153074    .228775
                         360.    .047882    .026476    .217339    .301098   1.009199    .017699    .007618   1609.139   32.18277
                          1.0        0.0        0.0        0.0        0.0
  17500     .0175  -251.92686 -195.41864 447.345497 -251.92686 -195.41864 447.345497   303106.7 -414055.45 110948.754        0.0
                          0.0        0.0 -259.13484 -199.44036 458.575203 303108.891 -414054.45 110945.554 -59.694486 -658.01556
                   717.710048 -56.508216 -642.76414 699.272354 717162.154 -525004.21 -192157.95 .389296983 -.38283316 -.00646383
                   -.27467E-6   -.212E-6 .458269E-6        0.0   171.9482   2.004493   1.636446    8.76185   7.153074    .228775
                         360.    .047882    .026476    .217339    .301098   1.009199    .017699    .007618   1609.139   32.18277
                          1.0        0.0        0.0        0.0        0.0
  18000      .018  -190.77237 -256.16923 446.941603 -190.77237 -256.16923 446.941603 346792.011 -391602.52 44810.5116        0.0
                          0.0        0.0 -196.51416 -261.80669 458.320842 346793.795 -391601.04 44807.2448 65.2925316 -720.12753
                   654.834997 65.3968607 -703.11083 637.713974 738394.533 -436413.03  -301981.5 .418496826 -.34237573  -.0761211
                   -.19429E-6 -.27016E-6 .464497E-6        0.0   171.9482   2.004493   1.636446    8.76185   7.153074    .228775
                         360.    .047882    .026476    .217339    .301098   1.009199    .017699    .007618   1609.139   32.18277
                          1.0        0.0        0.0        0.0        0.0
  18500     .0185   -124.9204 -310.61211 435.532513  -124.9204 -310.61211 435.532513 381938.151 -359507.04 -22431.114        0.0
                          0.0        0.0 -129.05463 -317.72646 446.781088 381939.485 -359505.12 -22434.368 188.671835 -764.50755
                   575.835715 185.691711 -746.14463 560.452914 741445.189 -337075.92 -404369.27 .437391867 -.29348786   -.143904
                   -.13063E-6 -.31941E-6  .43583E-6        0.0   171.9482   2.004493   1.636446    8.76185   7.153074    .228775
                         360.    .047882    .026476    .217339    .301098   1.009199    .017699    .007618   1609.139   32.18277
                          1.0        0.0        0.0        0.0        0.0
  19000      .019  -55.992565 -357.40664 413.399205 -55.992565 -357.40664 413.399205 407679.707  -318559.3 -89120.411        0.0
                          0.0        0.0 -58.417361 -365.82275 424.240111 407680.557 -318556.98 -89123.572 307.405389 -790.06286
                   482.657472 301.414076 -770.80585  469.39177 726239.003 -229438.88 -496800.12 .445516907 -.23737337 -.20814354
                   -.55251E-7 -.36365E-6 .447326E-6        0.0   171.9482   2.004493   1.636446    8.76185   7.153074    .228775
                         360.    .047882    .026476    .217339    .301098   1.009199    .017699    .007618   1609.139   32.18277
                          1.0        0.0        0.0        0.0        0.0
  19500     .0195  14.3140427 -395.40065 381.086611 14.3140427 -395.40065 381.086611 423382.835 -269767.57 -153615.27        0.0
                          0.0        0.0 13.6583532 -404.91128 391.252931  423383.18 -269764.92 -153618.26 418.569637 -796.16421
                   377.594578 409.714696 -776.48726 366.772568 693150.403  -116152.3  -576998.1 .442671811 -.17541394 -.26725787
                   .147947E-7 -.43257E-6 .424887E-6        0.0   171.9482   2.004493   1.636446    8.76185   7.153074    .228775
                         360.    .047882    .026476    .217339    .301098   1.009199    .017699    .007618   1609.139   32.18277
                          1.0        0.0        0.0        0.0        0.0
  20000       .02  84.2681729 -423.65859 339.390417 84.2681729 -423.65859 339.390417 428660.873 -214333.27 -214327.61        0.0
                          0.0        0.0 85.3977323 -434.02954 348.631807 428660.705 -214330.35 -214330.35 519.427272 -782.66135
                   263.234075 507.926762 -763.04901 255.122244 642994.139 -5.6589004 -642988.48 .428926663 -.10913524 -.31979142
                   .829913E-7 -.42902E-6 .360247E-6        0.0   171.9482   2.004493   1.636446    8.76185   7.153074    .228775
                         360.    .047882    .026476    .217339    .301098   1.009199    .017699    .007618   1609.139   32.18277
                          1.0        0.0        0.0        0.0        0.0
  20500     .0205  152.147373 -441.48465 289.337282 152.147373 -441.48465 289.337282 423383.857 -153621.37 -269762.49        0.0
                          0.0        0.0 155.034346 -452.46055 297.426208  423383.18 -153618.26 -269764.92 607.494901 -749.88676
                   142.391862 593.632027 -730.82194 137.189909 577005.226 116141.121 -693146.35  .40461994 -.04016928 -.36445066
                   .151413E-6 -.44511E-6 .322121E-6        0.0   171.9482   2.004493   1.636446    8.76185   7.153074    .228775
                         360.    .047882    .026476    .217339    .301098   1.009199    .017699    .007618   1609.139   32.18277
                          1.0        0.0        0.0        0.0        0.0
  21000      .021   216.28018 -448.43989  232.15971  216.28018 -448.43989  232.15971 407681.726 -89126.803 -318554.92        0.0
                          0.0        0.0 220.853513  -459.7505 238.896989 407680.557 -89123.572 -318556.98 680.604014 -698.64749
                   18.0434758 664.720071  -680.5996 15.8795296 496808.529 229428.121 -726236.65 .370350114 .029785792 -.40013591
                   .220542E-6  -.4838E-6  .23481E-6        0.0   171.9482   2.004493   1.636446    8.76185   7.153074    .228775
[...]
                         360.    .047882    .026476    .217339    .301098   1.009199    .017699    .007618   1609.139   32.18277
                          1.0        0.0        0.0        0.0        0.0
 113000      .113   -259096.4 -172438.83 431535.231  -259096.4 -172438.83 431535.231  -259096.4 -172438.83 431535.231        0.0
                          0.0        0.0 -280926.12 -160868.02 441794.137 -251960.44 -174352.02 426312.457  -120058.1 -602662.16
                   722720.253  -86657.57 -603974.06 690631.631 -86657.569 -603974.06 690631.631 210.082692 -323.78281 113.700123
                   -.29108E-3 -.19587E-3 .457823E-3        0.0   171.9482   2.004493   1.636446    8.76185   7.153074    .228775
                         360.    .047882    .026476    .217339    .301098   1.009199    .017699    .007618   1609.139   32.18277
                          1.0        0.0        0.0        0.0        0.0
 113500     .1135  -199812.11 -229999.42 429811.533 -199812.11 -229999.42 429811.533 -199812.11 -229999.43 429811.533        0.0
                          0.0        0.0 -256542.12 -203752.02 460294.131 -194607.89 -233465.35  428073.24 -52790.099 -664046.15
                   716836.247 30187.3172 -659810.96  629623.64 30187.3188 -659810.96  629623.64 393.372608 -401.15425 7.78164219
                   -.20788E-3  -.2518E-3 .430584E-3        0.0   171.9482   2.004493   1.636446    8.76185   7.153074    .228775
                         360.    .047882    .026476    .217339    .301098   1.009199    .017699    .007618   1609.139   32.18277
                          1.0        0.0        0.0        0.0        0.0
 114000      .114  -142378.44 -285115.29 427493.735 -142378.44 -285115.29 427493.735 -142378.44 -285115.29 427493.735        0.0
                          0.0        0.0 -155752.47 -293555.69 449308.155 -132463.44   -286830.  419293.44 137803.224 -742863.84
                   605060.621 142736.847 -712609.03 569872.179  142736.85 -712609.03 569872.177 741.245902 -561.63875 -179.60715
                   -.14471E-3 -.33887E-3 .454396E-3        0.0   171.9482   2.004493   1.636446    8.76185   7.153074    .228775
                         360.    .047882    .026476    .217339    .301098   1.009199    .017699    .007618   1609.139   32.18277
                          1.0        0.0        0.0        0.0        0.0
 114500     .1145   -57287.19 -343469.18  400756.37  -57287.19 -343469.18  400756.37 -57287.189 -343469.18 400756.369        0.0
                          0.0        0.0   -62806.1 -353599.97 416406.067 -67057.308 -333131.94 400189.244 290793.868 -770006.03
                   479212.167  286181.99 -744225.55  458043.56 286181.992 -744225.55 458043.558 576.307473 -353.31447   -222.993
                   -.60778E-4 -.38637E-3 .418097E-3        0.0   171.9482   2.004493   1.636446    8.76185   7.153074    .228775
                         360.    .047882    .026476    .217339    .301098   1.009199    .017699    .007618   1609.139   32.18277
                          1.0        0.0        0.0        0.0        0.0
 115000      .115  -1390.3766 -373310.46 374700.835 -1390.3766 -373310.46 374700.835 -1390.3758 -373310.46 374700.835        0.0
                          0.0        0.0 56431.4306  -421663.1  365231.67 .127058E-4 -371231.06  371231.06 478094.531 -786894.77
                   308800.239 371920.082 -748011.29 376091.212 371920.083 -748011.29 376091.211 406.273643 -167.20753 -239.06611
                   -.14547E-5 -.42008E-3  .39652E-3        0.0   171.9482   2.004493   1.636446    8.76185   7.153074    .228775
                         360.    .047882    .026476    .217339    .301098   1.009199    .017699    .007618   1609.139   32.18277
                          1.0        0.0        0.0        0.0        0.0
 115500     .1155   97132.346 -422746.25 325613.905  97132.346 -422746.25 325613.905 97132.3462 -422746.25 325613.905        0.0
                          0.0        0.0 104905.494 -431424.89   326519.4 67057.3081 -400189.24 333131.936 536330.388 -757944.29
                   221613.907 519878.597 -748360.16 228481.559 519878.597 -748360.16 228481.558 139.978711 57.6536652 -197.63238
                   .101164E-3 -.45199E-3 .321716E-3        0.0   171.9482   2.004493   1.636446    8.76185   7.153074    .228775
                         360.    .047882    .026476    .217339    .301098   1.009199    .017699    .007618   1609.139   32.18277
                          1.0        0.0        0.0        0.0        0.0
 116000      .116  117363.345 -408329.34 290965.999 117363.345 -408329.34 290965.999 117363.345 -408329.34 290965.999        0.0
                          0.0        0.0  132902.95 -424799.97 291897.023 132463.443 -419293.44 286829.997 557702.923   -716697.
                   158994.073  525692.69 -699295.34 173602.654  525692.69 -699295.34 173602.653 210.006819 23.9296541 -233.93647
                   .128609E-3 -.44274E-3 .314057E-3        0.0   171.9482   2.004493   1.636446    8.76185   7.153074    .228775
                         360.    .047882    .026476    .217339    .301098   1.009199    .017699    .007618   1609.139   32.18277
                          1.0        0.0        0.0        0.0        0.0
 116500     .1165   197574.18 -433623.25 236049.068  197574.18 -433623.25 236049.068 197574.181 -433623.25 236049.067        0.0
                          0.0        0.0 137539.458 -399081.34 261541.886 194607.888 -428073.24 233465.353 536620.802 -660623.23
                   124002.427 631197.429 -669672.32 38474.8876 631197.429 -669672.32 38474.8862 375.795516 -56.438236 -319.35728
                   .217293E-3  -.4586E-3 .241265E-3        0.0   171.9482   2.004493   1.636446    8.76185   7.153074    .228775
                         360.    .047882    .026476    .217339    .301098   1.009199    .017699    .007618   1609.139   32.18277
                          1.0        0.0        0.0        0.0        0.0
 117000      .117  210015.203 -398604.37 188589.172 210015.203 -398604.37 188589.172 210015.204 -398604.37 188589.171        0.0
                          0.0        0.0 206674.037 -407276.77  200602.73 251960.441 -426312.46 174352.016 613950.804  -607879.5
                    -6071.307 608619.578 -587193.55 -21426.031 608619.579 -587193.55 -21426.033 514.098622 -103.96236 -410.13626
                   .212069E-3 -.40619E-3 .194117E-3        0.0   171.9482   2.004493   1.636446    8.76185   7.153074    .228775
                         360.    .047882    .026476    .217339    .301098   1.009199    .017699    .007618   1609.139   32.18277
                          1.0        0.0        0.0        0.0        0.0
 117500     .1175  306639.584  -416640.3 110000.716 306639.584  -416640.3 110000.716 306639.585  -416640.3 110000.715        0.0
                          0.0        0.0 306100.538 -428055.52 121954.983 303108.891 -414054.45 110945.554  734156.06  -550010.5
                   -184145.56 723279.883 -526641.01 -196638.87 723279.884 -526641.01 -196638.87 518.026687 -34.823013 -483.20367
                   .366123E-3 -.43154E-3 .123613E-3        0.0   171.9482   2.004493   1.636446    8.76185   7.153074    .228775
                         360.    .047882    .026476    .217339    .301098   1.009199    .017699    .007618   1609.139   32.18277
                          1.0        0.0        0.0        0.0        0.0
 118000      .118   349891.58 -393854.31 43962.7311  349891.58 -393854.31 43962.7311 349891.581 -393854.31 43962.7302        0.0
                          0.0        0.0 420710.818 -450408.16 29697.3453 346793.795 -391601.04 44807.2447 871118.982 -480105.51
                   -391013.47 743745.892 -437817.04 -305928.85 743745.892 -437817.04 -305928.85 285.777506 172.262761 -458.04027
                   .366507E-3 -.42804E-3 .469908E-4        0.0   171.9482   2.004493   1.636446    8.76185   7.153074    .228775
                         360.    .047882    .026476    .217339    .301098   1.009199    .017699    .007618   1609.139   32.18277
                          1.0        0.0        0.0        0.0        0.0
 118500     .1185  424796.045 -391392.09 -33403.957 424796.045 -391392.09 -33403.957 424796.045 -391392.09 -33403.958        0.0
                          0.0        0.0 446171.527 -405427.57 -40743.958 381939.485 -359505.12 -22434.368 851599.096 -364683.61
                   -486915.48 816188.132 -357988.13   -458200. 816188.132 -357988.13   -458200. 128.019626 301.883819 -429.90345
                   .470473E-3 -.40142E-3 -.32654E-4        0.0   171.9482   2.004493   1.636446    8.76185   7.153074    .228775
                         360.    .047882    .026476    .217339    .301098   1.009199    .017699    .007618   1609.139   32.18277
                          1.0        0.0        0.0        0.0        0.0
 119000      .119  401110.593 -310694.35 -90416.242 401110.593 -310694.35 -90416.242 401110.593 -310694.35 -90416.243        0.0
                          0.0        0.0 419761.464 -322796.82 -96964.647 407680.557 -318556.98 -89123.572 742558.282 -225832.17
                   -516726.11 711804.944 -220278.11 -491526.84 711804.943 -220278.11 -491526.84 -109.73402 442.221399 -332.48738
                   .399791E-3 -.34951E-3 -.93929E-4        0.0   171.9482   2.004493   1.636446    8.76185   7.153074    .228775
                         360.    .047882    .026476    .217339    .301098   1.009199    .017699    .007618   1609.139   32.18277
                          1.0        0.0        0.0        0.0        0.0
 119500     .1195   417321.55 -268488.36 -148833.19  417321.55 -268488.36 -148833.19  417321.55 -268488.36 -148833.19        0.0
                          0.0        0.0 379350.573 -239209.59 -140140.99  423383.18 -269764.92 -153618.26  618560.16 -99068.602
                   -519491.56 685809.908 -119655.17 -566154.74 685809.907 -119655.16 -566154.74 -14.884507 356.409156 -341.52465
                   .451962E-3 -.30109E-3 -.17996E-3        0.0   171.9482   2.004493   1.636446    8.76185   7.153074    .228775
                         360.    .047882    .026476    .217339    .301098   1.009199    .017699    .007618   1609.139   32.18277
                          1.0        0.0        0.0        0.0        0.0
  % % % % % %   Suspended simulation;  plot data space exhausted;  SPY SPACE is required.   LIMBUF =  840000.
  % % % % % %   Suspended simulation;  plot data space exhausted;  SPY SPACE is required.   LIMBUF =  840000.
  +++  Time-sharing disabled.   Send  user-keyed interrupt to silence alarm.
   Current values.  INDBUF  INDBEG  LIMBUF  MFLUSH  NUMDCD  KCARD1  KCARD2
                    839994      50  840000    1007     230       1     231
Plot timespan now in memory (in sec) = 1.04985997E-01   1.19985000E-01
   ++++  Begin plot-data copy from memory to disk.   MFLUSH, INDBUF, N4, Tbeg,  Tend = 1008  839994       1  -1.00000E+00
1.00000E+19
 120000       .12  403446.164 -196369.51 -207076.66 403446.164 -196369.51 -207076.66 403446.164  -196369.5 -207076.66        0.0
                          0.0        0.0 392336.236 -191542.55 -200793.69 428660.705 -214330.35 -214330.35 583878.786 9251.13595
                   -593129.92  599815.67 10707.1536 -610522.82 599815.669 10707.1549 -610522.82 -26.543492 351.591545 -325.04805
                   .437942E-3 -.21337E-3 -.22458E-3        0.0   171.9482   2.004493   1.636446    8.76185   7.153074    .228775
                         360.    .047882    .026476    .217339    .301098   1.009199    .017699    .007618   1609.139   32.18277
                          1.0        0.0        0.0        0.0        0.0

Extrema of output variables follow.   Order and column positioning are the same as for the preceding time-step loop output.
Variable maxima :  501316.466 458859.736 439472.633 501316.466 458859.736 439472.633 501316.467 458859.736 439472.633        0.0
                          0.0        0.0 631012.278 521466.249 469724.509 428660.705 428660.703 428660.703 .1059779E7  837954.78
                   996108.758 843794.935 790411.034 812524.182 843794.936 790411.034 812524.183 1019.50912 872.310802 674.087767
                   .578054E-3 .531526E-3 .510484E-3        0.0   171.9482   2.004493   1.636446    8.76185   7.153074    .228775
                         360.    .047882    .026476    .217339    .301098   1.009199    .017699    .007618   1609.139   32.18277
                          1.0        0.0        0.0        0.0        0.0
Times of maxima :      .06007    .087347    .093784     .06007    .087347    .093784     .06007    .087347    .093784        0.0
                          0.0        0.0    .060661    .065369    .113212        0.0    .006667    .113333    .057557    .064858
                      .071708    .056902    .064958    .071341    .056902    .064958    .071341    .056417    .061415    .067809
                       .06005    .087358    .113879        0.0        0.0        0.0        0.0        0.0        0.0        0.0
                          0.0        0.0        0.0        0.0        0.0        0.0        0.0        0.0        0.0        0.0
                          0.0        0.0        0.0        0.0        0.0
Variable minima :  -474448.25 -502066.54 -447422.24 -474448.25 -502066.54 -447422.24 -514494.31 -502066.54 -447422.24        0.0
                          0.0        0.0  -577720.7  -557216.3 -508253.96 -428660.71  -428660.7  -428660.7 -.107471E7  -827238.6
                   -.100223E7 -839848.99  -767259.4 -804990.46 -917268.55 -774434.13 -804990.46 -1138.7392 -827.12769 -674.22803
                   -.54452E-3 -.57582E-3 -.51901E-3        0.0   171.9482   2.004493   1.636446    8.76185   7.153074    .228775
                         360.    .047882    .026476    .217339    .301098   1.009199    .017699    .007618   1609.139   32.18277
                          1.0        0.0        0.0        0.0        0.0
Times of minima :     .090415    .056892    .063318    .090415    .056892    .063318    .049339    .056892    .063318        0.0
                          0.0        0.0    .068609    .057148    .063812        .01    .016667    .103333    .068489    .075715
                      .060666    .068173    .095389    .061313    .049338    .055032    .061313    .064583    .072438     .05988
                      .090412    .056878    .063433        0.0        0.0        0.0        0.0        0.0        0.0        0.0
                          0.0        0.0        0.0        0.0        0.0        0.0        0.0        0.0        0.0        0.0
                          0.0        0.0        0.0        0.0        0.0

Blank card terminating all plot cards.            |BLANK PLOT

Memory storage figures for the preceding, now-completed data case.  -------------------------------  Present   Program
A value of  "-9999"  indicates that no figure is available.         28-Feb-22  21:11:33              figure     limit  (name)
     Size List 1.   Number of electric network nodes.                                                   37      6000  (LBUS)
     Size List 2.   Number of electric network branches.                                                39     10000  (LBRNCH)
     Size List 3.   Number of data values in R, L, C tables.                                            45    192000  (LDATA)
     Size List 4.   Number of electric network sources.                                                  3       900  (LEXCT)
     Size List 5.   Storage for [Y] and triangularized [Y].   No. times =    3     Factors =    66     189    420000  (LYMAT)
     Size List 6.   Number of entries in switch table.                  No. flops = 18                  21      1200  (LSWTCH)
     Size List 7.   Number of distinct ALPHANUMERIC data names plus program SPY variables.              25     15000  (LSIZE7)
     Size List 8.   History points of distributed lines.                                              2272    120000  (LPAST)
     Size List 9.   Number of nonlinear elements.                                                        0      2250  (LNONL)
     Size List 10.  Points of nonlinear characteristics.                                                 0      3800  (LCHAR)
     Size List 11.  Number of Type-59 S.M. outputs.                                                      0       720  (LSMOUT)
     Size List 12.  Total number of EMTP output variables.                                              55      2000  (LSIZ12)
     Size List 13.  Working space for batch/SPY plotting.                                            -9999     72800  (LSIZ13)
     Size List 14.  S.M./U.M. connections to TACS.                                                   -9999       510  (LBSTAC)
     Size List 15.  Character storage in bytes for MODELS.                                            3298     90000  (LCTACS)
     Size List 16.  Total number of Type-59 S.M. masses.                                                 0       800  (LIMASS)
     Size List 17.  Number of Type-59 Synchronous machines.                                              0        90  (LSYN)
     Size List 18.  Branch and switch power/energy outputs.                                              0       254  (MAXPE)
     Size List 19.  Total floating-point TACS table space.                                              23    120000  (LTACST)
     Size List 20.  Non-copied recursive convolution data.                                               0    100000  (LFSEM)
     Size List 21.  Total modal/phase [T] matrix storage.                                                9      3000  (LFD)
     Size List 22.  Total recursive convolution history.                                                 0     15000  (LHIST)
     Size List 23.  Giant vectors for renumbering, phasors;  also extrema accumulation.                  93    192000  (LSIZ23)
     Size List 24.  Peak phases of compensation for data.                                                0       120  (LCOMP)
     Size List 25.  Total table space for all U.M usage.                                             -9999     45000  (LSPCUM)
     Size List 26.  Square of max number of coupled phases.                                              9    260000  (LSIZ26)
     Size List 27.  Maximum number of MODELS top variables.                                             44       600  (LSIZ27)
     Size List 28.  MODELS.  Total work space is divided into INTEGER and REAL.  1st, REAL:           1780    210000  (LRTACS)
                             Second  and last,  statistics for INTEGER work space.                    6838         0  (LITACS)
     Size List 29.  RAM disk used by "TAPSAV" table saving (limit is "LABCOM" size LTLABL).          -9999       600  (LSIZ29)
     Size List 30.  Taku Noda frequency-dependent circuits.                                              0        19  (LSIZ30)
Timing figures characterizing central processor (CP) solution speed.  ----------------------------   CP sec  Wait sec  Real sec
     Data input time (through blank card ending branches) ....                                       0.031     0.000     0.031
     Node renumbering and phasor solution  ....                                                      0.016     0.000     0.016
     After phasor solution, but before time-step loop  ....                                          0.000     0.000     0.000
     Integration of equations (time-step loop)  ....                                                 0.766     0.000     0.766
     Plotting or STATISTICS termination overlays ....                                                0.000     0.000     0.000
                                                                                                    ---------------------------
                                                                                          Totals      0.813     0.000     0.813

