   ---   236   cards of disk file read into card cache cells  1   onward.
 Comment card is ignored.      |C   LBUS  LBRNCH   LDATA   LEXCT   LYMAT  LSWTCH
 Limit CIDEAL cards =   200    |CARDS        200 { Limit of CIDEAL will be 2 mor
 1st card (Lists  1-10).       |    6000   10000  192000     900  420000    120
 Comment card is ignored.      |C LSMOUT  LSIZ12  LSIZ13  LBSTAC  LCTACS  LIMASS
 2nd card (Lists 11-20).       |     720    2000   72800     510   90000     80
 Comment card is ignored.      |C    LFD   LHIST  LSIZ23   NCOMP  LSPCUM  LSIZ26
 3rd card (Lists 21-30).       |    3000   15000  192000     120   45000  26000
 4th card (Lists 31-32).       |     200     300     { Optional card for Lists
 Comment card is ignored.      |C  LWORK  LMARTI
 Supplemental offsets.         |  840000     742
 <===> Done with  "/"-card sorting by data class.    Remember that the source file appears different from interpreted input data.
Alternative Transients Program (ATP),  GNU Linux or DOS.  All rights reserved by Can/Am user group of Portland, Oregon, USA.
 Date (dd-mth-yy) and time of day (hh.mm.ss) = 28-Feb-22  20:01:12   Name of disk plot file is  draw6.3\bernal\energizacion4136.pl4
Consult the 860-page ATP Rule Book of the Can/Am EMTP User Group in Portland,  Oregon, USA.  Source code date is 12 August 2008.
Total size of LABCOM tables = 10913436 INTEGER words.  31 VARDIM  List Sizes follow:  6002  10K  192K  900  420K  1200  15K
  120K  2250  3800  720  2K  72800  510  90K  800  90  254  120K  100K  3K  15K  192K  120  45K  260K  600  210K  1100  60  200
--------------------------------------------------+--------------------------------------------------------------------------------
Descriptive interpretation of input data cards.   |  Input data card images are shown below, all 80 columns, character by character
                                                  0         1         2         3         4         5         6         7         8
                                                  012345678901234567890123456789012345678901234567890123456789012345678901234567890
--------------------------------------------------+--------------------------------------------------------------------------------
Comment card.   NUMDCD = 1.                       |C data:C:\ATP\ATPDRAW6.3\BERNAL\ENERGIZACION4136.ATP
Marker card preceding new EMTP data case.         |BEGIN NEW DATA CASE
Comment card.   NUMDCD = 3.                       |C --------------------------------------------------------
Comment card.   NUMDCD = 4.                       |C Generated by ATPDRAW  febrero, lunes 28, 2022
Comment card.   NUMDCD = 5.                       |C A Bonneville Power Administration program
Comment card.   NUMDCD = 6.                       |C by H. K. Høidalen at SEfAS/NTNU - NORWAY 1994-2016
Comment card.   NUMDCD = 7.                       |C --------------------------------------------------------
Comment card.   NUMDCD = 8.                       |C  dT  >< Tmax >< Xopt >< Copt ><Epsiln>
Misc. data.     1.000E-06   1.200E-01   5.000E+01 |   1.E-6     .12     50.
Misc. data.    500    1  0  1  1  0  0  0  0  0   |     500       1       0       1       1       0       0       0       0
  ///  Warning.  Nonzero XOPT or COPT differs from the power frequency of  6.00000000E+01  Hz.   Did the user really want this?
No TACS data,  but MODELS data begins (next).     |MODELS
      Another ordinary MODELS data card.          |OUTPUT
      Another ordinary MODELS data card.          |  AnVol
      Another ordinary MODELS data card.          |  LONG
      Another ordinary MODELS data card.          |  R0F
      Another ordinary MODELS data card.          |  R1F
      Another ordinary MODELS data card.          |  X0F
      Another ordinary MODELS data card.          |  X1F
      Another ordinary MODELS data card.          |  RDIVX
      Another ordinary MODELS data card.          |  RINSER
      Another ordinary MODELS data card.          |  CLOSE1
      Another ordinary MODELS data card.          |  RPpos
      Another ordinary MODELS data card.          |  RPcero
      Another ordinary MODELS data card.          |  LPpos
      Another ordinary MODELS data card.          |  LPcero
      Another ordinary MODELS data card.          |  CPpos
      Another ordinary MODELS data card.          |  CPcero
      Another ordinary MODELS data card.          |  Xp
      Another ordinary MODELS data card.          |  CR
      Another ordinary MODELS data card.          |  SIMET
      Another ordinary MODELS data card.          |  ENC1
      Another ordinary MODELS data card.          |  ENC2
      Another ordinary MODELS data card.          |  ENC1AS
      Another ordinary MODELS data card.          |  ENC2AS
      Another ordinary MODELS data card.          |MODEL DEFAULT
      Another ordinary MODELS data card.          |DATA AnVol,LONG,R0F,R1F,X0F,X1F,RDIVX,RINSER,CLOSE1,RPpos,RPcero,LPpos,LPcero
      Another ordinary MODELS data card.          |OUTPUT o1,o2,o3, o4, o5, o6, o7, o8, o9, o10, o11, o12, o13
      Another ordinary MODELS data card.          |VAR o1,o2,o3, o4, o5, o6, o7, o8, o9, o10, o11, o12, o13
      Another ordinary MODELS data card.          |INIT
      Another ordinary MODELS data card.          |  o1:=AnVol
      Another ordinary MODELS data card.          |  o2:=LONG
      Another ordinary MODELS data card.          |  o3:=R0F
      Another ordinary MODELS data card.          |  o4:=R1F
      Another ordinary MODELS data card.          |  o5:=X0F
      Another ordinary MODELS data card.          |  O6:=X1F
      Another ordinary MODELS data card.          |  o7:=RDIVX
      Another ordinary MODELS data card.          |  o8:=RINSER
      Another ordinary MODELS data card.          |  o9:=CLOSE1
      Another ordinary MODELS data card.          |  o10:=RPpos
      Another ordinary MODELS data card.          |  o11:=RPcero
      Another ordinary MODELS data card.          |  o12:=LPpos
      Another ordinary MODELS data card.          |  o13:=LPcero
      Another ordinary MODELS data card.          |
      Another ordinary MODELS data card.          |ENDINIT
      Another ordinary MODELS data card.          |EXEC
      Another ordinary MODELS data card.          |ENDEXEC
      Another ordinary MODELS data card.          |ENDMODEL
      Another ordinary MODELS data card.          |MODEL DEFAULT1
      Another ordinary MODELS data card.          |DATA CPpos,CPcero,Xp,CR,SIMET,ENC1,ENC2,ENC1AS,ENC2AS
      Another ordinary MODELS data card.          |OUTPUT o1, o2, o3, o4, o5, o6, o7, o8, o9
      Another ordinary MODELS data card.          |VAR o1, o2, o3, o4, o5, o6, o7, o8, o9
      Another ordinary MODELS data card.          |INIT
      Another ordinary MODELS data card.          |  o1:=CPpos
      Another ordinary MODELS data card.          |  o2:=CPcero
      Another ordinary MODELS data card.          |  o3:=Xp
      Another ordinary MODELS data card.          |  o4:=CR
      Another ordinary MODELS data card.          |  o5:=SIMET
      Another ordinary MODELS data card.          |  o6:=ENC1
      Another ordinary MODELS data card.          |  o7:=ENC2
      Another ordinary MODELS data card.          |  o8:=ENC1AS
      Another ordinary MODELS data card.          |  o9:=ENC2AS
      Another ordinary MODELS data card.          |
      Another ordinary MODELS data card.          |ENDINIT
      Another ordinary MODELS data card.          |EXEC
      Another ordinary MODELS data card.          |ENDEXEC
      Another ordinary MODELS data card.          |ENDMODEL
      Another ordinary MODELS data card.          |USE DEFAULT AS DEFAULT
      Another ordinary MODELS data card.          |DATA
      Another ordinary MODELS data card.          |  AnVol:=      0.0
      Another ordinary MODELS data card.          |  LONG:= 184.0017
      Another ordinary MODELS data card.          |  R0F:= 1.734782
      Another ordinary MODELS data card.          |  R1F:= 1.492005
      Another ordinary MODELS data card.          |  X0F:= 11.28171
      Another ordinary MODELS data card.          |  X1F:= 9.702874
      Another ordinary MODELS data card.          |  RDIVX:= 0.153769
      Another ordinary MODELS data card.          |  RINSER:=     380.
      Another ordinary MODELS data card.          |  CLOSE1:= 0.048984
      Another ordinary MODELS data card.          |  RPpos:= 0.024647
      Another ordinary MODELS data card.          |  RPcero:= 0.306665
      Another ordinary MODELS data card.          |  LPpos:= 0.242935
      Another ordinary MODELS data card.          |  LPcero:= 1.306737
      Another ordinary MODELS data card.          |OUTPUT
      Another ordinary MODELS data card.          |  AnVol:=o1
      Another ordinary MODELS data card.          |  LONG:=o2
      Another ordinary MODELS data card.          |  R0F:=o3
      Another ordinary MODELS data card.          |  R1F:=o4
      Another ordinary MODELS data card.          |  X0F:=o5
      Another ordinary MODELS data card.          |  X1F:=o6
      Another ordinary MODELS data card.          |  RDIVX:=o7
      Another ordinary MODELS data card.          |  RINSER:=o8
      Another ordinary MODELS data card.          |  CLOSE1:=o9
      Another ordinary MODELS data card.          |  RPpos:=o10
      Another ordinary MODELS data card.          |  RPcero:=o11
      Another ordinary MODELS data card.          |  LPpos:=o12
      Another ordinary MODELS data card.          |  LPcero:=o13
      Another ordinary MODELS data card.          |ENDUSE
      Another ordinary MODELS data card.          |USE DEFAULT1 AS DEF
      Another ordinary MODELS data card.          |DATA
      Another ordinary MODELS data card.          |  CPpos:= 0.016612
      Another ordinary MODELS data card.          |  CPcero:=  0.00869
      Another ordinary MODELS data card.          |  Xp:= 1602.156
      Another ordinary MODELS data card.          |  CR:= 32.04311
      Another ordinary MODELS data card.          |  SIMET:=      0.0
      Another ordinary MODELS data card.          |  ENC1:=      0.0
      Another ordinary MODELS data card.          |  ENC2:=      0.0
      Another ordinary MODELS data card.          |  ENC1AS:=       1.
      Another ordinary MODELS data card.          |  ENC2AS:=      0.0
      Another ordinary MODELS data card.          |OUTPUT
      Another ordinary MODELS data card.          |  CPpos:=o1
      Another ordinary MODELS data card.          |  CPcero:=o2
      Another ordinary MODELS data card.          |  Xp:=o3
      Another ordinary MODELS data card.          |  CR:=o4
      Another ordinary MODELS data card.          |  SIMET:=o5
      Another ordinary MODELS data card.          |  ENC1:=o6
      Another ordinary MODELS data card.          |  ENC2:=o7
      Another ordinary MODELS data card.          |  ENC1AS:=o8
      Another ordinary MODELS data card.          |  ENC2AS:=o9
      Another ordinary MODELS data card.          |ENDUSE
      Another ordinary MODELS data card.          |RECORD
      Another ordinary MODELS data card.          |  DEFAULT.o1 AS AnVOL
      Another ordinary MODELS data card.          |  DEFAULT.o2 AS LONG
      Another ordinary MODELS data card.          |  DEFAULT.o3 AS R0F
      Another ordinary MODELS data card.          |  DEFAULT.o4 AS R1F
      Another ordinary MODELS data card.          |  DEFAULT.o5 AS X0F
      Another ordinary MODELS data card.          |  DEFAULT.o6 AS X1F
      Another ordinary MODELS data card.          |  DEFAULT.o7 AS RDIVX
      Another ordinary MODELS data card.          |  DEFAULT.o8 AS RINSER
      Another ordinary MODELS data card.          |  DEFAULT.o9 AS CLOSE1
      Another ordinary MODELS data card.          |  DEFAULT.o10 AS RPpos
      Another ordinary MODELS data card.          |  DEFAULT.o11 AS RPcero
      Another ordinary MODELS data card.          |  DEFAULT.o12 AS LPpos
      Another ordinary MODELS data card.          |  DEFAULT.o13 AS LPcero
      Another ordinary MODELS data card.          |  DEF.o1 AS CPpos
      Another ordinary MODELS data card.          |  DEF.o2 AS CPcero
      Another ordinary MODELS data card.          |  DEF.o3 AS Xp
      Another ordinary MODELS data card.          |  DEF.o4 AS CR
      Another ordinary MODELS data card.          |  DEF.o5 AS SIMET
      Another ordinary MODELS data card.          |  DEF.o6 AS ENC1
      Another ordinary MODELS data card.          |  DEF.o7 AS ENC2
      Another ordinary MODELS data card.          |  DEF.o8 AS ENC1AS
      Another ordinary MODELS data card.          |  DEF.o9 AS ENC2AS
Termination of data for Laurent Dube`s MODELS.    |ENDMODELS
Comment card.   NUMDCD = 153.                     |C        1         2         3         4         5         6         7         8
Comment card.   NUMDCD = 154.                     |C 345678901234567890123456789012345678901234567890123456789012345678901234567890
Optional blank card follows last of MODELS data.  |BLANK MODELS
Comment card.   NUMDCD = 156.                     |C < n1 >< n2 ><ref1><ref2>< R  >< L  >< C  >
Comment card.   NUMDCD = 157.                     |C < n1 >< n2 ><ref1><ref2>< R  >< A  >< B  ><Leng><><>0
1st of coupled R-L.   1.73480E+00  3.59108E-02    |51IFUENASB1A              1.734811.281708778
2nd coil. 1.492E+00 3.089E-02 0.000E+00 0.000E+00 |52IFUENBSB1B               1.492 9.702873953
Zca, Zcc= 8.093E-02 1.675E-03 1.573E+00 3.256E-02 |53IFUENCSB1C
Series R-L-C.   1.000E+09  0.000E+00  0.000E+00   |  SB1A                      1.E9                                               0
Series R-L-C.   1.000E+09  0.000E+00  0.000E+00   |  SB1B                      1.E9                                               0
Series R-L-C.   1.000E+09  0.000E+00  0.000E+00   |  SB1C                      1.E9                                               0
Series R-L-C.   3.204E+01  5.100E+00  0.000E+00   |  RSNSHA                  32.0431602.2                                         0
Series R-L-C.   3.204E+01  5.100E+00  0.000E+00   |  RSNSHB                  32.0431602.2                                         0
Series R-L-C.   3.204E+01  5.100E+00  0.000E+00   |  RSNSHC                  32.0431602.2                                         0
Series R-L-C.   1.000E+09  0.000E+00  0.000E+00   |  RSNNHA                    1.E9                                               0
Series R-L-C.   1.000E+09  0.000E+00  0.000E+00   |  RSNNHB                    1.E9                                               0
Series R-L-C.   1.000E+09  0.000E+00  0.000E+00   |  RSNNHC                    1.E9                                               0
Series R-L-C.   1.000E+09  0.000E+00  0.000E+00   |  SE2A                      1.E9                                               0
Series R-L-C.   1.000E+09  0.000E+00  0.000E+00   |  SE2B                      1.E9                                               0
Series R-L-C.   1.000E+09  0.000E+00  0.000E+00   |  SE2C                      1.E9                                               0
Series R-L-C.   2.500E+02  0.000E+00  3.000E-10   |  X0001B                    250.       .0003                                   0
Series R-L-C.   2.500E+02  0.000E+00  3.000E-10   |  X0002B                    250.       .0003                                   0
Series R-L-C.   1.000E-06  0.000E+00  0.000E+00   |  X0001ALN1A               1.E-6                                               0
Series R-L-C.   1.000E-06  0.000E+00  0.000E+00   |  SB1A  X0002A             1.E-6                                               0
Series R-L-C.   1.000E-06  0.000E+00  0.000E+00   |  X0001BLN1B               1.E-6                                               0
Series R-L-C.   1.000E-06  0.000E+00  0.000E+00   |  SB1B  X0002B             1.E-6                                               0
Series R-L-C.   1.000E-06  0.000E+00  0.000E+00   |  X0001CLN1C               1.E-6                                               0
Series R-L-C.   1.000E-06  0.000E+00  0.000E+00   |  SB1C  X0002C             1.E-6                                               0
Series R-L-C.   3.800E+02  0.000E+00  0.000E+00   |  XX0005X0002A              380.                                               0
Series R-L-C.   3.800E+02  0.000E+00  0.000E+00   |  XX0003X0002B              380.                                               0
Series R-L-C.   3.800E+02  0.000E+00  0.000E+00   |  XX0004X0002C              380.                                               0
Series R-L-C.   2.500E+02  0.000E+00  3.000E-10   |  X0001A                    250.       .0003                                   0
Series R-L-C.   1.000E+06  0.000E+00  0.000E+00   |  X0001AX0002A              1.E6                                               0
Series R-L-C.   1.000E+06  0.000E+00  0.000E+00   |  X0001BX0002B              1.E6                                               0
Series R-L-C.   1.000E+06  0.000E+00  0.000E+00   |  X0001CX0002C              1.E6                                               0
Series R-L-C.   2.500E+02  0.000E+00  3.000E-10   |  X0002C                    250.       .0003                                   0
Series R-L-C.   2.500E+02  0.000E+00  3.000E-10   |  X0002A                    250.       .0003                                   0
Series R-L-C.   2.500E+02  0.000E+00  3.000E-10   |  X0001C                    250.       .0003                                   0
Series R-L-C.   1.250E+02  0.000E+00  6.000E-10   |  X0001AX0002A              125.       .0006                                   0
Series R-L-C.   1.250E+02  0.000E+00  6.000E-10   |  X0001BX0002B              125.       .0006                                   0
Series R-L-C.   1.250E+02  0.000E+00  6.000E-10   |  X0001CX0002C              125.       .0006                                   0
 3.067E-01 1.307E+00 8.690E-03 6.918E+02 1.106E-03|-1LN1A  VFF2A             .306671.3067.00869  184. 0 0                         0
 2.465E-02 2.429E-01 1.661E-02 2.158E+02 6.594E-04|-2LN1B  VFF2B             .02465.24293.01661  184. 0 0                         0
3rd or later transposed distributed phase.        |-3LN1C  VFF2C                                                                  0
Blank card ending branches.  IBR, NTOT = 39  31   |BLANK BRANCH
Comment card.   NUMDCD = 198.                     |C < n 1>< n 2>< Tclose ><Top/Tde ><   Ie   ><Vf/CLOP ><  type  >
Switch.  -1.00E+00  1.00E+01  0.00E+00  0.00E+00  |  LN1A  COMPA        -1.       10.                                             0
Switch.  -1.00E+00  1.00E+01  0.00E+00  0.00E+00  |  LN1B  COMPB        -1.       10.                                             0
Switch.  -1.00E+00  1.00E+01  0.00E+00  0.00E+00  |  LN1C  COMPC        -1.       10.                                             0
Switch.  -1.00E+00  1.00E+01  0.00E+00  0.00E+00  |  VFF2A RSNNHA       -1.       10.                                             0
Switch.  -1.00E+00  1.00E+01  0.00E+00  0.00E+00  |  VFF2B RSNNHB       -1.       10.                                             0
Switch.  -1.00E+00  1.00E+01  0.00E+00  0.00E+00  |  VFF2C RSNNHC       -1.       10.                                             0
Switch.   2.00E+00 -1.00E+00  0.00E+00  0.00E+00  |  VFF2A SE2A          2.       -1.                                             0
Switch.   2.00E+00 -1.00E+00  0.00E+00  0.00E+00  |  VFF2B SE2B          2.       -1.                                             0
Switch.   2.00E+00 -1.00E+00  0.00E+00  0.00E+00  |  VFF2C SE2C          2.       -1.                                             0
Switch.   4.90E-02  1.00E+03  0.00E+00  0.00E+00  |  X0001BXX0003.048983758      1.E3                                             0
Switch.   4.90E-02  1.00E+03  0.00E+00  0.00E+00  |  X0001CXX0004.048983758      1.E3                                             0
Switch.   5.65E-02  1.00E+03  0.00E+00  0.00E+00  |  XX0005X0002A.056483758      1.E3                                             0
Switch.   5.65E-02  1.00E+03  0.00E+00  0.00E+00  |  XX0003X0002B.056483758      1.E3                                             0
Switch.   5.65E-02  1.00E+03  0.00E+00  0.00E+00  |  XX0004X0002C.056483758      1.E3                                             0
Switch.   4.90E-02  1.00E+03  0.00E+00  0.00E+00  |  X0001AXX0005.048983758      1.E3                                             0
Permanently-closed switch used for metering.      |  VFUENAIFUENA                                        MEASURING                1
Permanently-closed switch used for metering.      |  VFUENBIFUENB                                        MEASURING                1
Permanently-closed switch used for metering.      |  VFUENCIFUENC                                        MEASURING                1
Permanently-closed switch used for metering.      |  COMPA RSNSHA                                        MEASURING                1
Permanently-closed switch used for metering.      |  COMPB RSNSHB                                        MEASURING                1
Permanently-closed switch used for metering.      |  COMPC RSNSHC                                        MEASURING                1
Blank card ending switches.   KSWTCH = 21.        |BLANK SWITCH
Comment card.   NUMDCD = 221.                     |C < n 1><>< Ampl.  >< Freq.  ><Phase/T0><   A1   ><   T1   >< TSTART >< TSTOP  >
Source.   4.29E+05  5.00E+01  0.00E+00 -1.00E+00  |14VFUENA  428660.705       50.                                     -1.      100.
Source.   4.29E+05  5.00E+01 -1.20E+02 -1.00E+00  |14VFUENB  428660.705       50.     -120.                           -1.      100.
Source.   4.29E+05  5.00E+01 -2.40E+02 -1.00E+00  |14VFUENC  428660.705       50.     -240.                           -1.      100.
Blank card ends electric sources.  KCONST = 3     |BLANK SOURCE
Pi-equivalent branches of distributed circuits are added to the table of List Size 3 between indices  40   and  45.

Sinusoidal steady-state phasor solution, branch by branch.   All flows are away from a bus,  and the real part,  magnitude,  or  "P"
is printed above the imaginary part,  the angle,  or  "Q".   The first solution frequency  =  5.00000000E+01  Hertz.
  Bus K                        Phasor  node  voltage              Phasor  branch  current               Power flow       Power loss
             Bus M         Rectangular            Polar          Rectangular            Polar            P  and  Q        P  and  Q

 IFUENA                    428660.705       428660.705      .42855387784351  .44567813367315      91852.103703442  .14817723313061
                                  0.0              0.0      .12235429138231       15.9343111      -26224.23840186        0.9636361

            SB1A      428661.25278588  428661.25280786      -.4285538778435  .44567813367315      -91851.95552621
                      -4.340756861535       -0.0005802      -.1223542913823     -164.0656889      26225.202037928

 IFUENB                  -214330.3525       428660.705      -.1083150143202  .44567813367415      91852.103703487  .14817723312959
                      -371231.0601341     -120.0000000      -.4323156907956     -104.0656889      -26224.23840248        0.9636361

            SB1B      -214334.3855987  428661.25280786      .10831501432022  .44567813367415      -91851.95552625
                      -371229.3641522     -120.0005802      .43231569079561       75.9343111       26225.20203855

 IFUENC                  -214330.3525       428660.705        -.32023886351  .44567813366967      91852.103703436  .14817723312949
                      371231.06013415      120.0000000      .30996139941792      135.9343111      -26224.23839916        0.9636361

            SB1C      -214326.8671872  428661.25280786      .32023886350998  .44567813366967       -91851.9555262
                      371233.70490907      119.9994198      -.3099613994179      -44.0656889      26225.202035234

 SB1A                 428661.25278588  428661.25280786      .42866125279E-3  .42866125281E-3      91.875234829402  91.875234829402
                      -4.340756861535       -0.0005802      -.4340756862E-8       -0.0005802       .465868121E-20        0.0000000

            TERRA                 0.0              0.0      -.4286612528E-3  .42866125281E-3                  0.0
                                  0.0              0.0      .43407568615E-8      179.9994198                  0.0

 SB1B                 -214334.3855987  428661.25280786      -.2143343856E-3  .42866125281E-3      91.875234829402  91.875234829402
                      -371229.3641522     -120.0005802      -.3712293642E-3     -120.0005802      -.340005801E-15        0.0000000

            TERRA                 0.0              0.0       .2143343856E-3  .42866125281E-3                  0.0
                                  0.0              0.0      .37122936415E-3       59.9994198                  0.0

 SB1C                 -214326.8671872  428661.25280786      -.2143268672E-3  .42866125281E-3      91.875234829402  91.875234829402
                      371233.70490907      119.9994198      .37123370491E-3      119.9994198      -.662664368E-15        0.0000000

            TERRA                 0.0              0.0      .21432686719E-3  .42866125281E-3                  0.0
                                  0.0              0.0      -.3712337049E-3      -60.0005802                  0.0

 RSNSHA               282.66704222435  1243.3558577879      -.7518808836242  .77587521951311      9.6446603207318  9.6446603207318
                      -1210.798551509      -76.8593638      -.1914614663452     -165.7136367       482.2480655955      482.2480656

            TERRA                 0.0              0.0      .75188088362417  .77587521951311                  0.0
                                  0.0              0.0      .19146146634523       14.2863633                  0.0

 RSNSHB               -1189.915825584  1243.3558577879       .2101299481113  .77587521951312      9.6446603207319  9.6446603207319
                      360.60243637547      163.1406362      .74687867901104       74.2863633       482.2480655955      482.2480656

            TERRA                 0.0              0.0      -.2101299481113  .77587521951312                  0.0
                                  0.0              0.0       -.746878679011     -105.7136367                  0.0

 RSNSHC                907.2487833598  1243.3558577879      .54175093551287  .77587521951312      9.6446603207319  9.6446603207319
                      850.19611513328       43.1406362      -.5554172126658      -45.7136367       482.2480655955      482.2480656

            TERRA                 0.0              0.0      -.5417509355129  .77587521951312                  0.0
                                  0.0              0.0      .55541721266581      134.2863633                  0.0

 RSNNHA               286.10862911391    1270.52009053      .28610862911E-6  .12705200905E-5      .80711065022E-3  .80711065022E-3
                      -1237.886567011      -76.9859392      -.1237886567E-5      -76.9859392      -.815269212E-20        0.0000000

            TERRA                 0.0              0.0      -.2861086291E-6  .12705200905E-5                  0.0
                                  0.0              0.0       .1237886567E-5      103.0140608                  0.0

 RSNNHB               -1215.095528592    1270.52009053      -.1215095529E-5  .12705200905E-5      .80711065022E-3  .80711065022E-3
                      371.16594245105      163.0140608      .37116594245E-6      163.0140608      .3033436742E-19        0.0000000

            TERRA                 0.0              0.0      .12150955286E-5  .12705200905E-5                  0.0
                                  0.0              0.0      -.3711659425E-6      -16.9859392                  0.0

 RSNNHC               928.98689947833    1270.52009053      .92898689948E-6  .12705200905E-5      .80711065022E-3  .80711065022E-3
                      866.72062456024       43.0140608      .86672062456E-6       43.0140608      -.735859873E-20        0.0000000

            TERRA                 0.0              0.0      -.9289868995E-6  .12705200905E-5                  0.0
                                  0.0              0.0      -.8667206246E-6     -136.9859392                  0.0

 X0001B               -1189.915825727  1243.3558578055      -.3398862129E-4  .11718352883E-3      .17164974286E-5  .17164974286E-5
                      360.60243596382      163.1406362      -.1121461237E-3     -106.8607138       -.072850413483       -0.0728504

            TERRA                 0.0              0.0      .33988621292E-4  .11718352883E-3                  0.0
                                  0.0              0.0      .11214612366E-3       73.1392862                  0.0

 X0002B               -214334.3855985  428661.25280743      .03498706731305  .04040037126974      .20402374984161  .20402374984161
                      -371229.3641518     -120.0005802      -.0202013642996      -30.0019302      -8659.036878782    -8659.0368788

            TERRA                 0.0              0.0       -.034987067313  .04040037126974                  0.0
                                  0.0              0.0      .02020136429959      149.9980698                  0.0

 X0001A               282.66704265239  1243.3558578054      .42803895894394  .43580893752913      10.897535702983  .94964715015E-7
                      -1210.798551427      -76.8593638      .08192728273571       10.8354473      -270.7135470835              0.0

            LN1A      282.66704222435  1243.3558577879      -.4280389589439  .43580893752913      -10.89753560802
                      -1210.798551509      -76.8593638      -.0819272827357     -169.1645527      270.71354708351

 SB1A                 428661.25278588  428661.25280786      .42811734601855  .44525839195894      91758.393386716  .99127518638E-7
                      -4.340756861535       -0.0005802      .12235429558416       15.9497331      -26225.20199107              0.0

            X0002A    428661.25278545  428661.25280743      -.4281173460186  .44525839195894      -91758.39338662
                      -4.340756983889       -0.0005802      -.1223542955842     -164.0502669      26225.201991074

 X0001B               -1189.915825727  1243.3558578055      -.1430682914361   .4358088898101      10.897492252095  .94964694212E-7
                      360.60243596382      163.1406362      -.4116562308809     -109.1645438      -270.7135191427              0.0

            LN1B      -1189.915825584  1243.3558577879      .14306829143607   .4358088898101      -10.89749215713
                      360.60243637547      163.1406362      .41165623088091       70.8354562      270.71351914272

 SB1B                 -214334.3855987  428661.25280786      -.1081207301468  .44528498130994      91764.937173081   .9913935628E-7
                      -371229.3641522     -120.0005802      -.4319590516388     -104.0525922      -26223.04401637        0.0000000

            X0002B    -214334.3855985  428661.25280743      .10812073014677  .44528498130994      -91764.93717298
                      -371229.3641518     -120.0005802      .43195905163884       75.9474078      26223.044016366

 X0001C               907.24878307483  1243.3558578055      -.2849706106645  .43580897842204      10.897539729693  .94964732855E-7
                        850.196115463       43.1406362      .32972900498862      130.8354466      -270.7135723642              0.0

            LN1C       907.2487833598  1243.3558577879      .28497061066446  .43580897842204      -10.89753963473
                      850.19611513328       43.1406362      -.3297290049886      -49.1645534      270.71357236422

 SB1C                 -214326.8671872  428661.25280786      -.3200257197022  .44527820077151      91763.247974645  .99136343579E-7
                      371233.70490907      119.9994198      .30960654839873      135.9480455      -26223.66600615              0.0

            X0002C    -214326.8671869  428661.25280743      .32002571970224  .44527820077151      -91763.24797455
                      371233.70490876      119.9994198      -.3096065483987      -44.0519545      26223.666006152

 XX0005               428661.25278545  428661.25280743                  0.0              0.0                  0.0              0.0
                      -4.340756983889       -0.0005802                  0.0              0.0                  0.0              0.0

            X0002A    428661.25278545  428661.25280743                  0.0              0.0                  0.0
                      -4.340756983889       -0.0005802                  0.0              0.0                  0.0

 XX0003               -214334.3855985  428661.25280743                  0.0              0.0                  0.0              0.0
                      -371229.3641518     -120.0005802                  0.0              0.0                  0.0              0.0

            X0002B    -214334.3855985  428661.25280743                  0.0              0.0                  0.0
                      -371229.3641518     -120.0005802                  0.0              0.0                  0.0

 XX0004               -214326.8671869  428661.25280743                  0.0              0.0                  0.0              0.0
                      371233.70490876      119.9994198                  0.0              0.0                  0.0              0.0

            X0002C    -214326.8671869  428661.25280743                  0.0              0.0                  0.0
                      371233.70490876      119.9994198                  0.0              0.0                  0.0

 X0001A               282.66704265239  1243.3558578054      .11411570267E-3  .11718352883E-3      .17164974286E-5  .17164974286E-5
                      -1210.798551427      -76.8593638       .2663805235E-4       13.1392862       -.072850413483       -0.0728504

            TERRA                 0.0              0.0      -.1141157027E-3  .11718352883E-3                  0.0
                                  0.0              0.0      -.2663805235E-4     -166.8607138                  0.0

 X0001A               282.66704265239  1243.3558578054      -.4283785857428  .42838028463436      -59.81386530883  91754.834131706
                      -1210.798551427      -76.8593638      -.0012064577944     -179.8386363      259.51059846824        0.0000000

            X0002A    428661.25278545  428661.25280743       .4283785857428  .42838028463436      91814.647997015
                      -4.340756983889       -0.0005802      .00120645779444        0.1613637      -259.5105984682

 X0001B               -1189.915825727  1243.3558578055      .21314446977282  .42838028463436      -59.81386530883  91754.834131706
                      360.60243596382      163.1406362      .37158996658774       60.1613637      259.51059846825        0.0000000

            X0002B    -214334.3855985  428661.25280743      -.2131444697728  .42838028463436      91814.647997015
                      -371229.3641518     -120.0005802      -.3715899665877     -119.8386363      -259.5105984682

 X0001C               907.24878307483  1243.3558578055      .21523411596998  .42838028463436      -59.81386530883  91754.834131706
                        850.196115463       43.1406362      -.3703835087933      -59.8386363      259.51059846825        0.0000000

            X0002C    -214326.8671869  428661.25280743        -.21523411597  .42838028463436      91814.647997015
                      371233.70490876      119.9994198      .37038350879329      120.1613637      -259.5105984682

 X0002C               -214326.8671869  428661.25280743      -.0349884283311  .04040037126974      .20402374984158  .20402374984158
                      371233.70490876      119.9994198      -.0201990069472     -150.0019302      -8659.036878782    -8659.0368788

            TERRA                 0.0              0.0      .03498842833108  .04040037126974                  0.0
                                  0.0              0.0      .02019900694722       29.9980698                  0.0

 X0002A               428661.25278545  428661.25280743      .13610180289E-5  .04040037126974      .20402374984159  .20402374984159
                      -4.340756983889       -0.0005802      .04040037124681       89.9980698      -8659.036878782    -8659.0368788

            TERRA                 0.0              0.0      -.1361018029E-5  .04040037126974                  0.0
                                  0.0              0.0      -.0404003712468      -90.0019302                  0.0

 X0001C               907.24878307483  1243.3558578055      -.8012708138E-4  .11718352883E-3      .17164974286E-5  .17164974286E-5
                        850.196115463       43.1406362      .85508071306E-4      133.1392862       -.072850413483       -0.0728504

            TERRA                 0.0              0.0      .80127081377E-4  .11718352883E-3                  0.0
                                  0.0              0.0      -.8550807131E-4      -46.8607138                  0.0

 X0001A               282.66704265239  1243.3558578054      .22550936928E-3  .08074778128659        48.9163297008  .40751276141914
                      -1210.798551427      -76.8593638      -.0807474663889      -89.8399863      11.275800554087   -17295.3787608

            X0002A    428661.25278545  428661.25280743      -.2255093693E-3  .08074778128659      -48.50881693938
                      -4.340756983889       -0.0005802      .08074746638893       90.1600137      -17306.65456132

 X0001B               -1189.915825727  1243.3558578055      -.0700421118687  .08074778128659      48.916329700801  .40751276141995
                      360.60243596382      163.1406362      .04017843635188      150.1600137      11.275800554087   -17295.3787608

            X0002B    -214334.3855985  428661.25280743      .07004211186868  .08074778128659      -48.50881693938
                      -371229.3641518     -120.0005802      -.0401784363519      -29.8399863      -17306.65456132

 X0001C               907.24878307483  1243.3558578055       .0698166024994  .08074778128659      48.916329700801  .40751276142035
                        850.196115463       43.1406362      .04056903003705       30.1600137      11.275800554087   -17295.3787608

            X0002C    -214326.8671869  428661.25280743      -.0698166024994  .08074778128659      -48.50881693938
                      371233.70490876      119.9994198       -.040569030037     -149.8399863      -17306.65456132

 LN1A                 282.66704222435  1243.3558577879      1.1799198297601  1.2111780416949       1.252833729423  1.2520266187726
                      -1210.798551509      -76.8593638      .27338881473622       13.0453033      -752.9616142043     -752.9616142

            VFF2A     286.10862911391    1270.52009053       -.286108631E-6  .12705200908E-5      -.8071106504E-3
                      -1237.886567011      -76.9859392      .12378865669E-5      103.0140609      .1163121536E-11

 LN1B                 -1189.915825584  1243.3558577879       -.353198256208  1.2111780416949      1.2528337294219  1.2520266187717
                      360.60243637547      163.1406362      -1.158534954369     -106.9546967      -752.9616142044     -752.9616142

            VFF2B     -1215.095528592    1270.52009053      .12150955282E-5  .12705200904E-5      -.8071106502E-3
                      371.16594245105      163.0140608      -.3711659435E-6      -16.9859392       -.71379387E-12

 LN1C                  907.2487833598  1243.3558577879      -.8267215735521   1.211178041695      1.2528337294228  1.2520266187735
                      850.19611513328       43.1406362      .88514613963316      133.0453033      -752.9616142044     -752.9616142

            VFF2C     928.98689947833    1270.52009053      -.9289868987E-6   .1270520089E-5      -.8071106492E-3
                      866.72062456024       43.0140608      -.8667206231E-6     -136.9859392      -.340698714E-12
     Total network loss  P-loss  by summing injections =   2.755430800735E+05

Output for steady-state phasor switch currents.
      Node-K    Node-M            I-real            I-imag            I-magn          Degrees        Power            Reactive
      LN1A      COMPA        -7.51880902E-01   -1.91461357E-01    7.75875211E-01    -165.7136    9.64459119E+00    4.82248061E+02
      LN1B      COMPB         2.10129863E-01    7.46878706E-01    7.75875223E-01      74.2864    9.64471582E+00    4.82248066E+02
      LN1C      COMPC         5.41750949E-01   -5.55417227E-01    7.75875239E-01     -45.7136    9.64466037E+00    4.82248078E+02
      VFF2A     RSNNHA        2.86108629E-07   -1.23788657E-06    1.27052009E-06     -76.9859    8.07110650E-04   -2.89245608E-13
      VFF2B     RSNNHB       -1.21509553E-06    3.71165942E-07    1.27052009E-06     163.0141    8.07110650E-04   -2.88618078E-13
      VFF2C     RSNNHC        9.28986900E-07    8.66720622E-07    1.27052009E-06      43.0141    8.07110649E-04    1.60435348E-12
      VFF2A     SE2A              Open              Open              Open             Open          Open              Open
      VFF2B     SE2B              Open              Open              Open             Open          Open              Open
      VFF2C     SE2C              Open              Open              Open             Open          Open              Open
      X0001B    XX0003            Open              Open              Open             Open          Open              Open
      X0001C    XX0004            Open              Open              Open             Open          Open              Open
      XX0005    X0002A            Open              Open              Open             Open          Open              Open
      XX0003    X0002B            Open              Open              Open             Open          Open              Open
      XX0004    X0002C            Open              Open              Open             Open          Open              Open
      X0001A    XX0005            Open              Open              Open             Open          Open              Open
      VFUENA    IFUENA        4.28553878E-01    1.22354291E-01    4.45678134E-01      15.9343    9.18521037E+04   -2.62242384E+04
      VFUENB    IFUENB       -1.08315014E-01   -4.32315691E-01    4.45678134E-01    -104.0657    9.18521037E+04   -2.62242384E+04
      VFUENC    IFUENC       -3.20238864E-01    3.09961399E-01    4.45678134E-01     135.9343    9.18521037E+04   -2.62242384E+04
      COMPA     RSNSHA       -7.51880902E-01   -1.91461357E-01    7.75875211E-01    -165.7136    9.64459119E+00    4.82248061E+02
      COMPB     RSNSHB        2.10129863E-01    7.46878706E-01    7.75875223E-01      74.2864    9.64471582E+00    4.82248066E+02
      COMPC     RSNSHC        5.41750949E-01   -5.55417227E-01    7.75875239E-01     -45.7136    9.64466037E+00    4.82248078E+02

Solution at nodes with known voltage.   Nodes that are shorted together by switches are shown as a group of names, with the printed
result applying to the composite group.   The entry "MVA" is  SQRT( P**2 + Q**2 )  in units of power,  while  "P.F."  is the
associated power factor.
              Node                Source  node  voltage             Injected  source  current              Injected  source  power
              name         Rectangular            Polar          Rectangular            Polar            P  and  Q    MVA and P.F.

               VFUENA
              IFUENA       428660.705       428660.705      .42855387784387   .4456781336721       91852.10370352  95522.351491482
                                  0.0              0.0      .12235429137721       15.9343111      -26224.23840077        0.9615771

               VFUENB
              IFUENB     -214330.3525       428660.705      -.1083150143212  .44567813367371      91852.103703465  95522.351491828
                      -371231.0601341     -120.0000000      -.4323156907949     -104.0656889      -26224.23840222        0.9615771

               VFUENC
              IFUENC     -214330.3525       428660.705      -.3202388635106  .44567813367018       91852.10370352  95522.351491072
                      371231.06013415      120.0000000      .30996139941802      135.9343111      -26224.23839927        0.9615771

  +++  Node  "COMPC "  has no connected linear branches.  Add (to ground) the conductance  G = 1.00000000E-18  mhos.
  +++  Node  "COMPB "  has no connected linear branches.  Add (to ground) the conductance  G = 1.00000000E-18  mhos.
  +++  Node  "COMPA "  has no connected linear branches.  Add (to ground) the conductance  G = 1.00000000E-18  mhos.
Card of names for time-step loop output.          |  LN1A  LN1B  LN1C  COMPA COMPB COMPC SB1A  SB1B  SB1C  SE2A  SE2B  SE2C  VFF2A
Card of names for time-step loop output.          |  VFF2B VFF2C IFUENAIFUENBIFUENC
Card of names for time-step loop output.          |-5VFF2A VFF2B VFF2B VFF2C VFF2C VFF2A LN1A  LN1B  LN1B  LN1C  LN1C  LN1A
Card of names for time-step loop output.          |-5SB1A  SB1B  SB1B  SB1C  SB1C  SB1A
Blank card ending requests for output variables.  |BLANK OUTPUT

Column headings for the  55   EMTP output variables follow.  These are divided among the 5 possible classes as follows ....
  First  27     output variables are electric-network voltage differences (upper voltage minus lower voltage);
  Next   6     output variables are branch currents (flowing from the upper node to the lower node);
  Next   22     output variables belong to MODELS (with "MODELS" an internally-added upper name of pair).
   Step      Time      LN1A       LN1B       LN1C       COMPA      COMPB      COMPC      SB1A       SB1B       SB1C       SE2A
 

                       SE2B       SE2C       VFF2A      VFF2B      VFF2C      IFUENA     IFUENB     IFUENC     VFF2A      VFF2B
                                                                                                               VFF2B      VFF2C

                       VFF2C      LN1A       LN1B       LN1C       SB1A       SB1B       SB1C       VFUENA     VFUENB     VFUENC
                       VFF2A      LN1B       LN1C       LN1A       SB1B       SB1C       SB1A       IFUENA     IFUENB     IFUENC

                       COMPA      COMPB      COMPC      MODELS     MODELS     MODELS     MODELS     MODELS     MODELS     MODELS
                       RSNSHA     RSNSHB     RSNSHC     ANVOL      LONG       R0F        R1F        X0F        X1F        RDIVX

                       MODELS     MODELS     MODELS     MODELS     MODELS     MODELS     MODELS     MODELS     MODELS     MODELS
                       RINSER     CLOSE1     RPPOS      RPCERO     LPPOS      LPCERO     CPPOS      CPCERO     XP         CR

                       MODELS     MODELS     MODELS     MODELS     MODELS
                       SIMET      ENC1       ENC2       ENC1AS     ENC2AS
 ***      Phasor I(0) = -7.5188090E-01                     Switch  "LN1A  "  to  "COMPA "  closed in the steady-state.
 ***      Phasor I(0) =  2.1012986E-01                     Switch  "LN1B  "  to  "COMPB "  closed in the steady-state.
 ***      Phasor I(0) =  5.4175095E-01                     Switch  "LN1C  "  to  "COMPC "  closed in the steady-state.
 ***      Phasor I(0) =  2.8610863E-07                     Switch  "VFF2A "  to  "RSNNHA"  closed in the steady-state.
 ***      Phasor I(0) = -1.2150955E-06                     Switch  "VFF2B "  to  "RSNNHB"  closed in the steady-state.
 ***      Phasor I(0) =  9.2898690E-07                     Switch  "VFF2C "  to  "RSNNHC"  closed in the steady-state.
 ***      Phasor I(0) =  4.2855388E-01                     Switch  "VFUENA"  to  "IFUENA"  closed in the steady-state.
 ***      Phasor I(0) = -1.0831501E-01                     Switch  "VFUENB"  to  "IFUENB"  closed in the steady-state.
 ***      Phasor I(0) = -3.2023886E-01                     Switch  "VFUENC"  to  "IFUENC"  closed in the steady-state.
 ***      Phasor I(0) = -7.5188090E-01                     Switch  "COMPA "  to  "RSNSHA"  closed in the steady-state.
 ***      Phasor I(0) =  2.1012986E-01                     Switch  "COMPB "  to  "RSNSHB"  closed in the steady-state.
 ***      Phasor I(0) =  5.4175095E-01                     Switch  "COMPC "  to  "RSNSHC"  closed in the steady-state.
      0       0.0  282.667042 -1189.9158 907.248783 282.667042 -1189.9158 907.248783 428661.253 -214334.39 -214326.87        0.0
                          0.0        0.0 286.108629 -1215.0955 928.986899 428660.705 -214330.35 -214330.35 1501.20416 -2144.0824
                    642.87827 1472.58287 -2097.1646 624.581741 642995.638 -7.5184114 -642988.12 .428553878 -.10831501 -.32023886
                    -.7518809 .210129863 .541750949        0.0   184.0017   1.734782   1.492005   11.28171   9.702874    .153769
                         380.    .048984    .024647    .306665    .242935   1.306737    .016612     .00869   1602.156   32.04311
                          0.0        0.0        0.0        1.0        0.0
    500     .5E-3   468.59643 -1231.6761  763.07965  468.59643 -1231.6761  763.07965 423384.389  -153622.5 -269761.89        0.0
                          0.0        0.0 476.234274 -1258.1988 781.964542  423383.18 -153618.26 -269764.92 1734.43309 -2040.1634
                   305.730268 1700.27251 -1994.7557  294.48322  577006.89 116139.387 -693146.28 .404174457 -.03936483 -.36480963
                   -.71267281 .090705367 .621967448        0.0   184.0017   1.734782   1.492005   11.28171   9.702874    .153769
                         380.    .048984    .024647    .306665    .242935   1.306737    .016612     .00869   1602.156   32.04311
                          0.0        0.0        0.0        1.0        0.0
   1000     .1E-2  642.989486 -1243.1094 600.119905 642.989486 -1243.1094 600.119905 407682.415  -89127.93 -318554.49        0.0
                          0.0        0.0  654.63307 -1270.3209 615.687868 407680.557 -89123.572 -318556.98 1924.95401 -1886.0088
                   -38.945203 1886.09888 -1843.2293 -42.869581 496810.345 229426.555  -726236.9 .369811597 .030570313 -.40038191
                   -.65591634 -.03095269 .686869136        0.0   184.0017   1.734782   1.492005   11.28171   9.702874    .153769
                         380.    .048984    .024647    .306665    .242935   1.306737    .016612     .00869   1602.156   32.04311
                          0.0        0.0        0.0        1.0        0.0
   1500     .0015  801.553756 -1223.9351 422.381392 801.553756 -1223.9351 422.381392 381941.977 -22438.748 -359503.23        0.0
                          0.0        0.0 816.913602  -1251.164 434.250367 381939.485 -22434.368 -359505.12 2068.07757 -1685.4143
                   -382.66323  2025.4889 -1646.3165 -379.17236 404380.725  337064.48 -741445.21 .326325156 .099761516 -.42608667
                   -.58300911 -.15184866 .734857769        0.0   184.0017   1.734782   1.492005   11.28171   9.702874    .153769
                         380.    .048984    .024647    .306665    .242935   1.306737    .016612     .00869   1602.156   32.04311
                          0.0        0.0        0.0        1.0        0.0
   2000      .002  940.372048  -1174.619 234.246924 940.372048  -1174.619 234.246924 346796.795 44802.9821 -391599.78        0.0
                          0.0        0.0 959.085723 -1201.2026 242.116867 346793.795 44807.2448 -391601.04 2160.28831 -1443.3195
                   -716.96886 2114.99102 -1408.8659 -706.12512 301993.813 436402.759 -738396.57 .274817384 .166489308 -.44130669
                   -.49574616 -.26900546 .764751766        0.0   184.0017   1.734782   1.492005   11.28171   9.702874    .153769
                         380.    .048984    .024647    .306665    .242935   1.306737    .016612     .00869   1602.156   32.04311
                          0.0        0.0        0.0        1.0        0.0
   2500     .0025  1056.03949 -1096.3819 40.3424216 1056.03949 -1096.3819 40.3424216 303112.344 110941.505 -414053.85        0.0
                          0.0        0.0 1077.62683  -1121.656 44.0291998 303108.891 110945.554 -414054.45 2199.28287 -1165.6852
                   -1033.5976  2152.4214 -1136.7243 -1015.6971  192170.84 524995.354 -717166.19  .21654537 .229116246 -.44566162
                   -.39627634 -.37953873 .775815036        0.0   184.0017   1.734782   1.492005   11.28171   9.702874    .153769
                         380.    .048984    .024647    .306665    .242935   1.306737    .016612     .00869   1602.156   32.04311
                          0.0        0.0        0.0        1.0        0.0
   3000      .003  1145.70502 -991.14897 -154.55606 1145.70502 -991.14897 -154.55606 251964.249 174348.286 -426312.53        0.0
                          0.0        0.0 1169.64166 -1014.4948 -155.14687 251960.441 174352.016 -426312.46 2184.13644 -859.34792
                   -1324.7885 2136.85399 -836.59291 -1300.2611 77615.9626 600660.821 -678276.78 .152941725 .286101362 -.43904309
                   -.28704884 -.48072629 .767775187        0.0   184.0017   1.734782   1.492005   11.28171   9.702874    .153769
                         380.    .048984    .024647    .306665    .242935   1.306737    .016612     .00869   1602.156   32.04311
                          0.0        0.0        0.0        1.0        0.0
   3500     .0035  1207.15831    -861.51 -345.64831 1207.15831    -861.51 -345.64831  194612.01 233462.008 -428074.02        0.0
                          0.0        0.0 1232.85602 -882.35336 -350.50266 194607.888 233465.353 -428073.24 2115.20938  -531.8507
                   -1583.3587 2068.66831 -515.86169 -1552.8066 -38849.998 661536.025 -622686.03 .085559999 .336047799  -.4216078
                   -.17075331 -.57007676 .740830128        0.0   184.0017   1.734782   1.492005   11.28171   9.702874    .153769
                         380.    .048984    .024647    .306665    .242935   1.306737    .016612     .00869   1602.156   32.04311
                          0.0        0.0        0.0        1.0        0.0
   4000      .004  1238.88838 -710.65837 -528.23001 1238.88838 -710.65837 -528.23001 132467.767 286827.125 -419294.89        0.0
                          0.0        0.0  1265.7134 -728.48543 -537.22797 132463.443 286829.997 -419293.44 1994.19883 -191.25746
                   -1802.9414 1949.54676 -182.42836 -1767.1184 -154359.36 706122.016 -551762.66 .016076529  .37771711 -.39379364
                   -.05025341 -.64539012 .695643424        0.0   184.0017   1.734782   1.492005   11.28171   9.702874    .153769
                         380.    .048984    .024647    .306665    .242935   1.306737    .016612     .00869   1602.156   32.04311
                          0.0        0.0        0.0        1.0        0.0
   4500     .0045  1240.10985 -542.30639 -697.80346 1240.10985 -542.30639 -697.80346 67061.6684 333129.636  -400191.3        0.0
                          0.0        0.0 1267.40338 -556.67912 -710.72427 67057.3081 333131.936 -400189.24  1824.0825 154.045153
                   -1978.1277 1782.41624 155.497072 -1937.9133 -266067.97  733320.94 -467252.97 -.05379997 .410084341 -.35628437
                   .071484249 -.70481177 .633327639        0.0   184.0017   1.734782   1.492005   11.28171   9.702874    .153769
                         380.    .048984    .024647    .306665    .242935   1.306737    .016612     .00869   1602.156   32.04311
                          0.0        0.0        0.0        1.0        0.0
   5000      .005  1210.79865  -360.6025 -850.19615 1210.79865  -360.6025 -850.19615 4.33301857 371229.368  -371233.7        0.0
                          0.0        0.0  1237.8843 -371.16485 -866.71945 -.45661E-7  371231.06 -371231.06 1609.04915 495.554598
                   -2104.6038 1571.40115  489.59365 -2060.9948 -371225.03 742463.069 -371238.03 -.12235316 .432354656  -.3100015
                   .191461405  -.7468787 .555417235        0.0   184.0017   1.734782   1.492005   11.28171   9.702874    .153769
                         380.    .048984    .024647    .306665    .242935   1.306737    .016612     .00869   1602.156   32.04311
                          0.0        0.0        0.0        1.0        0.0
   5500     .0055   1151.6725 -170.01889 -981.65361  1151.6725 -170.01889 -981.65361 -67053.121 400188.207 -333135.09        0.0
                          0.0        0.0 1177.88925 -176.51366 -1001.3756 -67057.308 400189.244 -333131.94 1354.40291  824.86194
                   -2179.2648 1321.69139 811.634715 -2133.3261 -467241.33 733323.293 -266081.96  -.1878959 .443980112 -.25608421
                   .306724375 -.77055496 .463830619        0.0   184.0017   1.734782   1.492005   11.28171   9.702874    .153769
                         380.    .048984    .024647    .306665    .242935   1.306737    .016612     .00869   1602.156   32.04311
                          0.0        0.0        0.0        1.0        0.0
   6000      .006   1064.1889 24.7509257 -1088.9398  1064.1889 24.7509257 -1088.9398 -132459.47 419293.066  -286833.6        0.0
                          0.0        0.0 1088.88506 22.4866457 -1111.3717 -132463.44  419293.44   -286830. 1066.39841 1133.85835
                   -2200.2568 1039.43798 1113.69075 -2153.1287 -551752.54 706126.663 -154374.13 -.24881089 .444672742 -.19586186
                   .414434747  -.7752576 .360823028        0.0   184.0017   1.734782   1.492005   11.28171   9.702874    .153769
                         380.    .048984    .024647    .306665    .242935   1.306737    .016612     .00869   1602.156   32.04311
                          0.0        0.0        0.0        1.0        0.0
   6500     .0065   950.50121 218.911392 -1169.4126  950.50121 218.911392 -1169.4126 -194604.27 428073.562 -233469.29        0.0
                          0.0        0.0 973.074537 220.930473  -1194.005 -194607.89  428073.24 -233465.35 752.144065 1414.93548
                   -2167.0795 731.589819 1388.32399 -2119.9138 -622677.83 661542.852 -38865.019  -.3035987 .434415731 -.13081703
                   .511940174 -.76087083  .24893068        0.0   184.0017   1.734782   1.492005   11.28171   9.702874    .153769
                         380.    .048984    .024647    .306665    .242935   1.306737    .016612     .00869   1602.156   32.04311
                          0.0        0.0        0.0        1.0        0.0
   7000      .007  813.409636 407.681199 -1221.0908 813.409636 407.681199 -1221.0908 -251957.27 426313.464  -174356.2        0.0
                          0.0        0.0 833.300508 413.935858 -1247.2364 -251960.44 426312.457 -174352.02  419.36465 1661.17222
                   -2080.5369 405.728437 1628.77203 -2034.5005 -678270.73  600669.66 77601.0724 -.35091238 .413462701 -.06255032
                   .596840128 -.72774886 .130908737        0.0   184.0017   1.734782   1.492005   11.28171   9.702874    .153769
                         380.    .048984    .024647    .306665    .242935   1.306737    .016612     .00869   1602.156   32.04311
                          0.0        0.0        0.0        1.0        0.0
   7500     .0075   656.28797 586.413206 -1242.7012  656.28797 586.413206 -1242.7012 -303106.21 414056.097 -110949.89        0.0
                          0.0        0.0  673.00677 596.749271  -1269.756 -303108.89 414054.446 -110945.55 76.2574996 1866.50531
                   -1942.7628 69.8747646 1829.11438 -1898.9891  -717162.3 525005.988 192156.317 -.38958294 .382327611 .007255327
                   .667043848 -.67670736 .009663508        0.0   184.0017   1.734782   1.492005   11.28171   9.702874    .153769
                         380.    .048984    .024647    .306665    .242935   1.306737    .016612     .00869   1602.156   32.04311
                          0.0        0.0        0.0        1.0        0.0
   8000      .008  483.006741 750.705518 -1233.7123 483.006741 750.705518 -1233.7123 -346791.69 391603.309 -44811.617        0.0
                          0.0        0.0 496.145569  764.86668 -1261.0122  -346793.8  391601.04 -44807.245 -268.72111 2025.87893
                   -1757.1578 -267.69878 1984.41778  -1716.719   -738395. 436414.925 301980.075 -.41866568 .341780844 .076884841
                   .720822679 -.60900305 -.11181975        0.0   184.0017   1.734782   1.492005   11.28171   9.702874    .153769
                         380.    .048984    .024647    .306665    .242935   1.306737    .016612     .00869   1602.156   32.04311
                          0.0        0.0        0.0        1.0        0.0
   8500     .0085  297.833612 896.512347  -1194.346 297.833612 896.512347  -1194.346   -381938. 359507.938 22430.0589        0.0
                          0.0        0.0 307.064131 914.152265 -1221.2164 -381939.48 359505.117 22434.3679 -607.08813 2135.36866
                   -1528.2805 -598.67874 2090.85831 -1492.1796 -741445.94 337077.879 404368.056 -.43743192 .292814518 .144617406
                    .75685255 -.52630303 -.23054952        0.0   184.0017   1.734782   1.492005   11.28171   9.702874    .153769
                         380.    .048984    .024647    .306665    .242935   1.306737    .016612     .00869   1602.156   32.04311
                          0.0        0.0        0.0        1.0        0.0
   9000      .009  105.325006 1020.24498   -1125.57 105.325006 1020.24498   -1125.57 -407679.74 318560.299  89119.442        0.0
                          0.0        0.0 110.422316 1040.92808 -1151.3504 -407680.56 318556.985  89123.572 -930.50576 2192.27848
                   -1261.7727 -914.91997 2145.81497  -1230.895 -726240.04 229440.857 496799.183 -.44543244 .236640775 .208791667
                   .774246135 -.43064373 -.34360239        0.0   184.0017   1.734782   1.492005   11.28171   9.702874    .153769
                         380.    .048984    .024647    .306665    .242935   1.306737    .016612     .00869   1602.156   32.04311
                          0.0        0.0        0.0        1.0        0.0
   9500     .0095    -89.7746 1118.85453 -1029.0799   -89.7746 1118.85453 -1029.0799 -423383.04 269768.641 153614.401        0.0
                          0.0        0.0  -88.93795 1142.07257 -1053.1346 -423383.18 269764.922 153618.258 -1231.0105  2195.2072
                   -964.19668 -1208.6291 2147.93447 -939.30533 -693151.68  116154.24 576997.444 -.44246543 .174640403 .267825031
                   .772575238 -.32438051 -.44819475        0.0   184.0017   1.734782   1.492005   11.28171   9.702874    .153769
                         380.    .048984    .024647    .306665    .242935   1.306737    .016612     .00869   1602.156   32.04311
                          0.0        0.0        0.0        1.0        0.0
  10000       .01  -282.66734 1189.91606 -907.24872 -282.66734 1189.91606 -907.24872 -428661.25 214334.384 214326.864        0.0
                          0.0        0.0 -286.10775 1215.09515 -928.98741 -428660.71 214330.353 214330.352 -1501.2029 2144.08256
                   -642.87966 -1472.5834 2097.16478 -624.58137 -642995.63 7.51915791 642988.112 -.42859835 .108337252 .320261098
                   .751880988 -.21012994 -.54175099        0.0   184.0017   1.734782   1.492005   11.28171   9.702874    .153769
                         380.    .048984    .024647    .306665    .242935   1.306737    .016612     .00869   1602.156   32.04311
                          0.0        0.0        0.0        1.0        0.0
  10500     .0105  -468.59738 1231.67664 -763.07926 -468.59738 1231.67664 -763.07926  -423384.4 153622.507 269761.893        0.0
                          0.0        0.0 -476.23417 1258.19886 -781.96469 -423383.18 153618.258 269764.922  -1734.433 2040.16355
                   -305.73052  -1700.274  1994.7559 -294.48188 -577006.91 -116139.39 693146.293 -.40418238 .039368787 .364813591
                   .712672914 -.09070533 -.62196753        0.0   184.0017   1.734782   1.492005   11.28171   9.702874    .153769
                         380.    .048984    .024647    .306665    .242935   1.306737    .016612     .00869   1602.156   32.04311
                          0.0        0.0        0.0        1.0        0.0
  11000      .011  -642.98846 1243.10896 -600.12051 -642.98846 1243.10896 -600.12051 -407682.42 89127.9331 318554.488        0.0
                          0.0        0.0 -654.63352 1270.32124 -615.68772 -407680.56  89123.572 318556.985 -1924.9548 1886.00896
                   38.9457983 -1886.0974 1843.22947 42.8679517 -496810.35 -229426.55 726236.909 -.36981208 -.03057008 .400382152
                   .655916445   .0309527 -.68686915        0.0   184.0017   1.734782   1.492005   11.28171   9.702874    .153769
                         380.    .048984    .024647    .306665    .242935   1.306737    .016612     .00869   1602.156   32.04311
                          0.0        0.0        0.0        1.0        0.0
  11500     .0115   -801.5496 1223.93314 -422.38354  -801.5496 1223.93314 -422.38354 -381941.94 22438.7316 359503.212        0.0
                          0.0        0.0 -816.91348 1251.16399 -434.25051 -381939.48 22434.3679 359505.117 -2068.0775 1685.41449
                   382.662973 -2025.4827 1646.31668 379.166059 -404380.67 -337064.48 741445.155 -.32633776 -.09975521 .426092966
                   .583009133 .151848664  -.7348578        0.0   184.0017   1.734782   1.492005   11.28171   9.702874    .153769
                         380.    .048984    .024647    .306665    .242935   1.306737    .016612     .00869   1602.156   32.04311
                          0.0        0.0        0.0        1.0        0.0
  12000      .012  -940.36987 1174.61795 -234.24808 -940.36987 1174.61795 -234.24808 -346796.79 -44802.985 391599.774        0.0
                          0.0        0.0 -959.07808 1201.19885 -242.12077  -346793.8 -44807.245  391601.04 -2160.2769 1443.31961
                   716.957315 -2114.9878 1408.86602 706.121793  -301993.8 -436402.76 738396.563 -.27482562 -.16648519 .441310806
                   .495746291 .269005536 -.76475183        0.0   184.0017   1.734782   1.492005   11.28171   9.702874    .153769
                         380.    .048984    .024647    .306665    .242935   1.306737    .016612     .00869   1602.156   32.04311
                          0.0        0.0        0.0        1.0        0.0
  12500     .0125    -1056.04 1096.38224 -40.342262   -1056.04 1096.38224 -40.342262 -303112.35  -110941.5 414053.853        0.0
                          0.0        0.0 -1077.6274  1121.6564 -44.028978 -303108.89 -110945.55 414054.446 -2199.2838 1165.68538
                   1033.59845 -2152.4222  1136.7245 1015.69771 -192170.85 -524995.35 717166.206 -.21654694 -.22911547 .445662401
                   .396276543 .379538659 -.77581511        0.0   184.0017   1.734782   1.492005   11.28171   9.702874    .153769
                         380.    .048984    .024647    .306665    .242935   1.306737    .016612     .00869   1602.156   32.04311
                          0.0        0.0        0.0        1.0        0.0
  13000      .013  -1145.7041 991.148576 154.555538 -1145.7041 991.148576 154.555538 -251964.27 -174348.27 426312.547        0.0
                          0.0        0.0 -1169.6428 1014.49542 155.147363 -251960.44 -174352.02 426312.457 -2184.1382 859.348061
                   1324.79015 -2136.8527 836.593039 1300.25965 -77616.001 -600660.82 678276.821 -.15293824 -.28610311  .43904135
                   .287048979 .480726264 -.76777527        0.0   184.0017   1.734782   1.492005   11.28171   9.702874    .153769
                         380.    .048984    .024647    .306665    .242935   1.306737    .016612     .00869   1602.156   32.04311
                          0.0        0.0        0.0        1.0        0.0
  13500     .0135  -1207.1574 861.509605 345.647798 -1207.1574 861.509605 345.647798 -194612.01 -233462.01 428074.019        0.0
                          0.0        0.0 -1232.8555 882.353145 350.502332 -194607.89 -233465.35  428073.24 -2115.2086 531.850813
                   1583.35781  -2068.667 515.861806  1552.8052 38849.9927 -661536.02 622686.032  -.0855611 -.33604725 .421608351
                   .170753345 .570076787 -.74083025        0.0   184.0017   1.734782   1.492005   11.28171   9.702874    .153769
                         380.    .048984    .024647    .306665    .242935   1.306737    .016612     .00869   1602.156   32.04311
                          0.0        0.0        0.0        1.0        0.0
  14000      .014  -1238.8875 710.657983 528.229554 -1238.8875 710.657983 528.229554 -132467.74 -286827.14 419294.878        0.0
                          0.0        0.0 -1265.7155 728.486511 537.228966 -132463.44   -286830.  419293.44  -1994.202 191.257545
                   1802.94444 -1949.5455  182.42843 1767.11709 154359.399 -706122.02 551762.617 -.01607867 -.37771603 .393794701
                   .050253258 .645390134 -.69564351        0.0   184.0017   1.734782   1.492005   11.28171   9.702874    .153769
                         380.    .048984    .024647    .306665    .242935   1.306737    .016612     .00869   1602.156   32.04311
                          0.0        0.0        0.0        1.0        0.0
  14500     .0145  -1240.1106 542.306794  697.80377 -1240.1106 542.306794  697.80377 -67061.683 -333129.63 400191.311        0.0
                          0.0        0.0 -1267.4038 556.679401 710.724444 -67057.308 -333131.94 400189.244 -1824.0832 -154.04504
                   1978.12829 -1782.4174 -155.49698 1937.91433 266067.946 -733320.94 467252.994 .053800338 -.41008453 .356284189
                   -.07148409 .704811867 -.63332778        0.0   184.0017   1.734782   1.492005   11.28171   9.702874    .153769
                         380.    .048984    .024647    .306665    .242935   1.306737    .016612     .00869   1602.156   32.04311
                          0.0        0.0        0.0        1.0        0.0
  % % % % % %   Suspended simulation;  plot data space exhausted;  SPY SPACE is required.   LIMBUF =  840000.
  % % % % % %   Suspended simulation;  plot data space exhausted;  SPY SPACE is required.   LIMBUF =  840000.
  +++  Time-sharing disabled.   Send  user-keyed interrupt to silence alarm.
   Current values.  INDBUF  INDBEG  LIMBUF  MFLUSH  NUMDCD  KCARD1  KCARD2
                    839994      50  840000    1000     230       1     231
Plot timespan now in memory (in sec) = 0.00000000E+00   1.49990000E-02
   ++++  Begin plot-data copy from memory to disk.   MFLUSH, INDBUF, N4, Tbeg,  Tend = 1001  839994       1  -1.00000E+00
1.00000E+19
  15000      .015  -1210.7987 360.602576 850.196146 -1210.7987 360.602576 850.196146 -4.3485198 -371229.36 371233.709        0.0
                          0.0        0.0 -1237.8867 371.166083 866.720615 -.61533E-6 -371231.06  371231.06 -1609.0528 -495.55453
                   2104.60731 -1571.4013 -489.59357 2060.99487 371225.012 -742463.07 371238.057 .122354154 -.43235516 .310001004
                   -.19146138 .746878744 -.55541731        0.0   184.0017   1.734782   1.492005   11.28171   9.702874    .153769
                         380.    .048984    .024647    .306665    .242935   1.306737    .016612     .00869   1602.156   32.04311
                          0.0        0.0        0.0        1.0        0.0
  15500     .0155  -1151.6731 170.019198 981.653884 -1151.6731 170.019198 981.653884 67053.1095  -400188.2 333135.092        0.0
                          0.0        0.0 -1177.8906 176.514347 1001.37624 67057.3081 -400189.24 333131.936 -1354.4049 -824.86189
                   2179.26682 -1321.6923 -811.63469 2133.32697 467241.311 -733323.29 266081.982 .187895373 -.44397985 .256084476
                   -.30672441 .770555016 -.46383066        0.0   184.0017   1.734782   1.492005   11.28171   9.702874    .153769
                         380.    .048984    .024647    .306665    .242935   1.306737    .016612     .00869   1602.156   32.04311
                          0.0        0.0        0.0        1.0        0.0
  16000      .016  -1064.1884 -24.751159 1088.93958 -1064.1884 -24.751159 1088.93958 132459.474 -419293.07 286833.595        0.0
                          0.0        0.0 -1088.8873 -22.485508 1111.37283 132463.443 -419293.44 286829.997 -1066.4018 -1133.8583
                   2200.26016 -1039.4373 -1113.6907   2153.128 551752.543 -706126.66  154374.12 .248809373 -.44467198 .195862611
                   -.41443455 .775257652 -.36082308        0.0   184.0017   1.734782   1.492005   11.28171   9.702874    .153769
                         380.    .048984    .024647    .306665    .242935   1.306737    .016612     .00869   1602.156   32.04311
                          0.0        0.0        0.0        1.0        0.0
  16500     .0165  -950.50069 -218.91163 1169.41232 -950.50069 -218.91163 1169.41232 194604.271 -428073.56 233469.291        0.0
                          0.0        0.0 -973.07063 -220.93245 1194.00308 194607.888 -428073.24 233465.353 -752.13818 -1414.9355
                   2167.07371 -731.58905 -1388.3239   2119.913 622677.832 -661542.85 38865.0196  .30359866 -.43441571 .130817053
                   -.51194017 .760870885 -.24893075        0.0   184.0017   1.734782   1.492005   11.28171   9.702874    .153769
                         380.    .048984    .024647    .306665    .242935   1.306737    .016612     .00869   1602.156   32.04311
                          0.0        0.0        0.0        1.0        0.0
  17000      .017  -813.40929 -407.68137 1221.09067 -813.40929 -407.68137 1221.09067  251957.25 -426313.46 174356.205        0.0
                          0.0        0.0 -833.30112 -413.93555 1247.23667 251960.441 -426312.46 174352.016 -419.36557 -1661.1722
                   2080.53779 -405.72792  -1628.772 2034.49996 678270.705 -600669.66 -77601.045 .350911026 -.41346203 .062551004
                   -.59684009 .727748966 -.13090877        0.0   184.0017   1.734782   1.492005   11.28171   9.702874    .153769
                         380.    .048984    .024647    .306665    .242935   1.306737    .016612     .00869   1602.156   32.04311
                          0.0        0.0        0.0        1.0        0.0
  17500     .0175  -656.28714 -586.41364 1242.70078 -656.28714 -586.41364 1242.70078 303106.208  -414056.1  110949.89        0.0
                          0.0        0.0 -673.00851 -596.74842 1269.75693 303108.891 -414054.45 110945.554 -76.260095 -1866.5053
                   1942.76544 -69.873501 -1829.1144 1898.98791 717162.306 -525005.99 -192156.32 .389582595 -.38232744 -.00725516
                   -.66704378 .676707438 -.00966366        0.0   184.0017   1.734782   1.492005   11.28171   9.702874    .153769
                         380.    .048984    .024647    .306665    .242935   1.306737    .016612     .00869   1602.156   32.04311
                          0.0        0.0        0.0        1.0        0.0
  18000      .018  -483.00734 -750.70525  1233.7126 -483.00734 -750.70525  1233.7126 346791.691 -391603.31 44811.6173        0.0
                          0.0        0.0 -496.14495 -764.86702 1261.01197 346793.795 -391601.04 44807.2448 268.722068  -2025.879
                   1757.15692 267.697912 -1984.4179 1716.71994 738394.999 -436414.93 -301980.07 .418662733 -.34177937 -.07688336
                   -.72082269 .609003055 .111819636        0.0   184.0017   1.734782   1.492005   11.28171   9.702874    .153769
                         380.    .048984    .024647    .306665    .242935   1.306737    .016612     .00869   1602.156   32.04311
                          0.0        0.0        0.0        1.0        0.0
  18500     .0185   -297.8333 -896.51256 1194.34586  -297.8333 -896.51256 1194.34586    381938. -359507.94  -22430.06        0.0
                          0.0        0.0   -307.064 -914.15235 1221.21635 381939.485 -359505.12 -22434.368 607.088349 -2135.3687
                   1528.28035 598.679259 -2090.8584 1492.17916  741445.94 -337077.88 -404368.06 .437433973 -.29281554 -.14461843
                   -.75685253 .526303071 .230549457        0.0   184.0017   1.734782   1.492005   11.28171   9.702874    .153769
                         380.    .048984    .024647    .306665    .242935   1.306737    .016612     .00869   1602.156   32.04311
                          0.0        0.0        0.0        1.0        0.0
  19000      .019  -105.32449 -1020.2453 1125.56976 -105.32449 -1020.2453 1125.56976 407679.738  -318560.3  -89119.44        0.0
                          0.0        0.0 -110.42272 -1040.9279 1151.35064 407680.557 -318556.98 -89123.572 930.505205 -2192.2786
                   1261.77336 914.920789  -2145.815 1230.89425 726240.036 -229440.86 -496799.18 .445432576 -.23664084 -.20879173
                   -.77424617 .430643849  .34360241        0.0   184.0017   1.734782   1.492005   11.28171   9.702874    .153769
                         380.    .048984    .024647    .306665    .242935   1.306737    .016612     .00869   1602.156   32.04311
                          0.0        0.0        0.0        1.0        0.0
  19500     .0195  89.7759402 -1118.8553 1029.07932 89.7759402 -1118.8553 1029.07932 423383.043 -269768.64  -153614.4        0.0
                          0.0        0.0 88.9379305 -1142.0726 1053.13469  423383.18 -269764.92 -153618.26 1231.01055 -2195.2073
                   964.196756  1208.6312 -2147.9346 939.303379 693151.684 -116154.24 -576997.44 .442463144 -.17463926 -.26782389
                   -.77257529 .324380498 .448194646        0.0   184.0017   1.734782   1.492005   11.28171   9.702874    .153769
                         380.    .048984    .024647    .306665    .242935   1.306737    .016612     .00869   1602.156   32.04311
                          0.0        0.0        0.0        1.0        0.0
  20000       .02  282.668284 -1189.9166 907.248311 282.668284 -1189.9166 907.248311 428661.251 -214334.39 -214326.87        0.0
                          0.0        0.0 286.108757 -1215.0957 928.986966 428660.705 -214330.35 -214330.35 1501.20448 -2144.0827
                   642.878209 1472.58488 -2097.1649 624.580027 642995.637 -7.5191926 -642988.12 .428600597 -.10833837 -.32026222
                   -.75188101 .210130048 .541750904        0.0   184.0017   1.734782   1.492005   11.28171   9.702874    .153769
                         380.    .048984    .024647    .306665    .242935   1.306737    .016612     .00869   1602.156   32.04311
                          0.0        0.0        0.0        1.0        0.0
  20500     .0205   468.59696 -1231.6765 763.079518  468.59696 -1231.6765 763.079518 423384.399 -153622.51 -269761.89        0.0
                          0.0        0.0 476.232325  -1258.198 781.965706  423383.18 -153618.26 -269764.92 1734.43036 -2040.1637
                   305.733382 1700.27344  -1994.756 294.482558 577006.905 116139.386 -693146.29 .404182959 -.03936908 -.36481388
                   -.71267294 .090705575 .621967484        0.0   184.0017   1.734782   1.492005   11.28171   9.702874    .153769
                         380.    .048984    .024647    .306665    .242935   1.306737    .016612     .00869   1602.156   32.04311
                          0.0        0.0        0.0        1.0        0.0
  21000      .021  642.989576 -1243.1096 600.120016 642.989576 -1243.1096 600.120016 407682.419 -89127.932 -318554.49        0.0
                          0.0        0.0 654.633099 -1270.3211 615.687994 407680.557 -89123.572 -318556.98 1924.95419 -1886.0091
                   -38.945105 1886.09917 -1843.2296  -42.86956 496810.351 229426.555 -726236.91 .369812505 .030569861 -.40038237
                   -.65591653 -.03095252 .686869161        0.0   184.0017   1.734782   1.492005   11.28171   9.702874    .153769
[...]
                         380.    .048984    .024647    .306665    .242935   1.306737    .016612     .00869   1602.156   32.04311
                          0.0        0.0        0.0        1.0        0.0
 113000      .113  -245057.96 -181775.03  426832.99 -245057.96 -181775.03  426832.99 -245057.96 -181775.03 426832.991        0.0
                          0.0        0.0 -261582.06 -171013.26 432595.321 -251960.44 -174352.02 426312.457 -90568.796 -603608.58
                   694177.379 -63282.922 -608608.02 671890.947 -63282.922 -608608.02 671890.947 -4.9921414 -54.168282 59.1604254
                   -231.52762 170.466891 61.0607295        0.0   184.0017   1.734782   1.492005   11.28171   9.702874    .153769
                         380.    .048984    .024647    .306665    .242935   1.306737    .016612     .00869   1602.156   32.04311
                          0.0        0.0        0.0        1.0        0.0
 113500     .1135  -192474.15 -234880.23 427354.381 -192474.15 -234880.23 427354.381 -192474.15 -234880.23 427354.381        0.0
                          0.0        0.0 -197756.26 -236416.12 434172.374 -194607.89 -233465.35  428073.24 38659.8614 -670588.49
                   631928.629 42406.0882 -662234.61 619828.527 42406.0885 -662234.62 619828.527 37.6366983 -99.740703 62.1040059
                   -252.96116 150.216138 102.745047        0.0   184.0017   1.734782   1.492005   11.28171   9.702874    .153769
                         380.    .048984    .024647    .306665    .242935   1.306737    .016612     .00869   1602.156   32.04311
                          0.0        0.0        0.0        1.0        0.0
 114000      .114  -141002.46 -280106.41 421108.866 -141002.46 -280106.41 421108.866 -141002.46 -280106.41 421108.866        0.0
                          0.0        0.0 -165743.95 -257985.05 423729.002 -132463.44   -286830.  419293.44  92241.098 -681714.05
                   589472.954 139103.944 -701215.27 562111.327 139103.945 -701215.27 562111.327  140.83534 -219.11565 78.2803073
                   -268.84569 124.973702 143.871959        0.0   184.0017   1.734782   1.492005   11.28171   9.702874    .153769
                         380.    .048984    .024647    .306665    .242935   1.306737    .016612     .00869   1602.156   32.04311
                          0.0        0.0        0.0        1.0        0.0
 114500     .1145  -66660.115 -331619.65 398279.768 -66660.115 -331619.65 398279.768 -66660.114 -331619.65 398279.769        0.0
                          0.0        0.0 -62134.152  -348941.6 411075.752 -67057.308 -333131.94 400189.244 286807.447 -760017.35
                   473209.904 264959.539 -729899.42 464939.883  264959.54 -729899.42 464939.883 235.740096 -313.95318 78.2130848
                   -278.38564 94.7849387   183.6007        0.0   184.0017   1.734782   1.492005   11.28171   9.702874    .153769
                         380.    .048984    .024647    .306665    .242935   1.306737    .016612     .00869   1602.156   32.04311
                          0.0        0.0        0.0        1.0        0.0
 115000      .115  8205.35416 -383230.95 375025.593 8205.35416 -383230.95 375025.593 8205.35463 -383230.95 375025.593        0.0
                          0.0        0.0 3686.20631 -388476.93 384790.728 .127058E-4 -371231.06  371231.06 392163.141 -773267.66
                   381104.522 391436.301 -758256.54 366820.239 391436.302 -758256.54 366820.238 232.628615  -272.4548 39.8261889
                   -280.81541 59.7345132  221.08094        0.0   184.0017   1.734782   1.492005   11.28171   9.702874    .153769
                         380.    .048984    .024647    .306665    .242935   1.306737    .016612     .00869   1602.156   32.04311
                          0.0        0.0        0.0        1.0        0.0
 115500     .1155  62124.4742 -396411.48 334287.008 62124.4742 -396411.48 334287.008 62124.4744 -396411.48 334287.008        0.0
                          0.0        0.0 86237.4172 -435695.61 349458.196 67057.3081 -400189.24 333131.936  521933.03 -785153.81
                   263220.779 458535.956 -730698.49 272162.534 458535.957 -730698.49 272162.533 121.874791 -100.07026 -21.804534
                    -275.9999 20.6965202 255.303372        0.0   184.0017   1.734782   1.492005   11.28171   9.702874    .153769
                         380.    .048984    .024647    .306665    .242935   1.306737    .016612     .00869   1602.156   32.04311
                          0.0        0.0        0.0        1.0        0.0
 116000      .116  136312.134 -428023.17 291711.038 136312.134 -428023.17 291711.038 136312.134 -428023.17 291711.038        0.0
                          0.0        0.0 136152.188  -432734.8 296582.607 132463.443 -419293.44 286829.997 568886.983  -729317.4
                   160430.419 564335.306 -719734.21 155398.904 564335.306 -719734.21 155398.903 58.9057348 9.02773055 -67.933465
                   -264.98236 -20.209028  285.19139        0.0   184.0017   1.734782   1.492005   11.28171   9.702874    .153769
                         380.    .048984    .024647    .306665    .242935   1.306737    .016612     .00869   1602.156   32.04311
                          0.0        0.0        0.0        1.0        0.0
 116500     .1165  189440.463 -422914.31 233473.848 189440.463 -422914.31 233473.848 189440.463 -422914.31 233473.848        0.0
                          0.0        0.0 202078.222 -439540.65 237462.432 194607.888 -428073.24 233465.353 641618.875 -677003.09
                   35384.2103 612354.774 -656388.16 44033.3846 612354.774 -656388.16 44033.3844 16.6495656 55.5459241  -72.19549
                   -247.85816 -61.990852  309.84901        0.0   184.0017   1.734782   1.492005   11.28171   9.702874    .153769
                         380.    .048984    .024647    .306665    .242935   1.306737    .016612     .00869   1602.156   32.04311
                          0.0        0.0        0.0        1.0        0.0
 117000      .117  249138.494 -426620.22 177481.723 249138.494 -426620.22 177481.723 249138.494 -426620.22 177481.723        0.0
                          0.0        0.0 235548.575 -409818.72 174270.143 251960.441 -426312.46 174352.016 645367.294 -584088.86
                   -61278.432  675758.71 -604101.94 -71656.771 675758.711 -604101.94 -71656.771 105.416013 -60.906495 -44.509519
                   -225.72478 -102.99244 328.717283        0.0   184.0017   1.734782   1.492005   11.28171   9.702874    .153769
                         380.    .048984    .024647    .306665    .242935   1.306737    .016612     .00869   1602.156   32.04311
                          0.0        0.0        0.0        1.0        0.0
 117500     .1175  289053.418 -399025.11  109971.69 289053.418 -399025.11  109971.69 289053.418 -399025.11  109971.69        0.0
                          0.0        0.0  287072.88 -400963.58 113890.698 303108.891 -414054.45 110945.554 688036.458 -514854.28
                   -173182.18 688078.526  -508996.8 -179081.73 688078.527  -508996.8 -179081.73 164.413952 -139.02626 -25.387697
                    -198.1667 -143.40048  341.56718        0.0   184.0017   1.734782   1.492005   11.28171   9.702874    .153769
                         380.    .048984    .024647    .306665    .242935   1.306737    .016612     .00869   1602.156   32.04311
                          0.0        0.0        0.0        1.0        0.0
 118000      .118  353800.554 -400771.22 46970.6646 353800.554 -400771.22 46970.6646 353800.554 -400771.22 46970.6646        0.0
                          0.0        0.0 354874.383 -402534.75 47660.3652 346793.795 -391601.04 44807.2447 757409.131 -450195.11
                   -307214.02 754571.772 -447741.88 -306829.89 754571.773 -447741.88 -306829.89 190.082057 -156.83113 -33.250925
                   -165.85169  -182.3329 348.184634        0.0   184.0017   1.734782   1.492005   11.28171   9.702874    .153769
                         380.    .048984    .024647    .306665    .242935   1.306737    .016612     .00869   1602.156   32.04311
                          0.0        0.0        0.0        1.0        0.0
 118500     .1185  377559.468 -356545.58 -21013.885 377559.468 -356545.58 -21013.885 377559.468 -356545.58 -21013.885        0.0
                          0.0        0.0 398234.153 -385386.02 -12848.131 381939.485 -359505.12 -22434.368 783620.174 -372537.89
                   -411082.28 734105.051  -335531.7 -398573.35 734105.051  -335531.7 -398573.35 77.1115246 -3.3687595 -73.742766
                   -128.92675 -219.51425 348.441021        0.0   184.0017   1.734782   1.492005   11.28171   9.702874    .153769
                         380.    .048984    .024647    .306665    .242935   1.306737    .016612     .00869   1602.156   32.04311
                          0.0        0.0        0.0        1.0        0.0
 119000      .119  418038.272  -328571.8 -89466.477 418038.272  -328571.8 -89466.477 418038.272  -328571.8 -89466.477        0.0
                          0.0        0.0 432356.342 -344708.85 -87647.495 407680.557 -318556.98 -89123.572  777065.19 -257061.35
                   -520003.84 746610.068 -239105.32 -507504.75 746610.067 -239105.32 -507504.75 -9.3063542 109.308487 -100.00213
                    -89.28081   -252.765 342.045836        0.0   184.0017   1.734782   1.492005   11.28171   9.702874    .153769
                         380.    .048984    .024647    .306665    .242935   1.306737    .016612     .00869   1602.156   32.04311
                          0.0        0.0        0.0        1.0        0.0
 119500     .1195  427029.229 -272631.04 -154398.19 427029.229 -272631.04 -154398.19 427029.228 -272631.04 -154398.19        0.0
                          0.0        0.0 441325.469 -285971.25 -155354.21  423383.18 -269764.92 -153618.26 727296.722 -130617.04
                   -596679.68 699660.268 -118232.85 -581427.42 699660.267 -118232.85 -581427.42 -70.754417 173.598775 -102.84436
                    -47.86354 -281.23467 329.098184        0.0   184.0017   1.734782   1.492005   11.28171   9.702874    .153769
                         380.    .048984    .024647    .306665    .242935   1.306737    .016612     .00869   1602.156   32.04311
                          0.0        0.0        0.0        1.0        0.0
  % % % % % %   Suspended simulation;  plot data space exhausted;  SPY SPACE is required.   LIMBUF =  840000.
  % % % % % %   Suspended simulation;  plot data space exhausted;  SPY SPACE is required.   LIMBUF =  840000.
  +++  Time-sharing disabled.   Send  user-keyed interrupt to silence alarm.
   Current values.  INDBUF  INDBEG  LIMBUF  MFLUSH  NUMDCD  KCARD1  KCARD2
                    839994      50  840000    1007     230       1     231
Plot timespan now in memory (in sec) = 1.04985997E-01   1.19985000E-01
   ++++  Begin plot-data copy from memory to disk.   MFLUSH, INDBUF, N4, Tbeg,  Tend = 1008  839994       1  -1.00000E+00
1.00000E+19
 120000       .12  434252.812 -217150.06 -217102.75 434252.812 -217150.06 -217102.75 434252.812 -217150.06 -217102.75        0.0
                          0.0        0.0 432006.561 -205056.56   -226950. 428660.705 -214330.35 -214330.35 637063.122 21893.4396
                   -658956.56 651402.875  -47.31426 -651355.56 651402.875 -47.313974 -651355.56 -37.939756 90.5762384 -52.636484
                   -6.1150978 -303.61142  309.72652        0.0   184.0017   1.734782   1.492005   11.28171   9.702874    .153769
                         380.    .048984    .024647    .306665    .242935   1.306737    .016612     .00869   1602.156   32.04311
                          0.0        0.0        0.0        1.0        0.0

Extrema of output variables follow.   Order and column positioning are the same as for the preceding time-step loop output.
Variable maxima :  458782.282 460247.903 439167.789 458782.282 460247.903 439167.789 458782.283 460247.902 439562.152        0.0
                          0.0        0.0 498236.569 523353.923 457251.599 428660.705 428660.703 428660.703 916329.697 846518.719
                    793418.86 828262.416 782164.432 763921.527 828262.417 782164.432 834955.095 380.978718 500.575127 412.096677
                    255.13628 197.099368 388.695003        0.0   184.0017   1.734782   1.492005   11.28171   9.702874    .153769
                         380.    .048984    .024647    .306665    .242935   1.306737    .016612     .00869   1602.156   32.04311
                          0.0        0.0        0.0        1.0        0.0
Times of maxima :     .060917    .066142    .073593    .060917    .066142    .073593    .060917    .066142    .052971        0.0
                          0.0        0.0    .080423    .066224    .073618        0.0    .006667    .113333    .058531    .065483
                      .072146    .057948      .0854     .09145    .057948      .0854    .051659    .056951    .049202     .05031
                      .104881    .111603    .058262        0.0        0.0        0.0        0.0        0.0        0.0        0.0
                          0.0        0.0        0.0        0.0        0.0        0.0        0.0        0.0        0.0        0.0
                          0.0        0.0        0.0        0.0        0.0
Variable minima :  -448108.66 -468189.84  -436177.3 -448108.66 -468189.84  -436177.3 -532765.64 -468189.84  -436177.3        0.0
                          0.0        0.0 -497917.17 -521167.55 -462843.01 -428660.71  -428660.7  -428660.7 -887567.04 -834434.46
                   -840160.82 -808382.67 -767748.26 -772224.63 -808382.67 -767748.26 -772224.62 -724.51538 -577.85049  -138.6315
                   -282.41325 -370.26743 -182.37126        0.0   184.0017   1.734782   1.492005   11.28171   9.702874    .153769
                         380.    .048984    .024647    .306665    .242935   1.306737    .016612     .00869   1602.156   32.04311
                          0.0        0.0        0.0        1.0        0.0
Times of minima :     .069052    .076802    .063546    .069052    .076802    .063546    .050356    .076802    .063546        0.0
                          0.0        0.0    .069516    .077196    .063077        .01    .016667    .103333    .069282    .074173
                      .061573    .069045    .115152    .062228    .069045    .115152    .062228    .050192    .070032    .058271
                      .074998    .061623    .108302        0.0        0.0        0.0        0.0        0.0        0.0        0.0
                          0.0        0.0        0.0        0.0        0.0        0.0        0.0        0.0        0.0        0.0
                          0.0        0.0        0.0        0.0        0.0

Blank card terminating all plot cards.            |BLANK PLOT

Memory storage figures for the preceding, now-completed data case.  -------------------------------  Present   Program
A value of  "-9999"  indicates that no figure is available.         28-Feb-22  20:01:29              figure     limit  (name)
     Size List 1.   Number of electric network nodes.                                                   37      6000  (LBUS)
     Size List 2.   Number of electric network branches.                                                39     10000  (LBRNCH)
     Size List 3.   Number of data values in R, L, C tables.                                            45    192000  (LDATA)
     Size List 4.   Number of electric network sources.                                                  3       900  (LEXCT)
     Size List 5.   Storage for [Y] and triangularized [Y].   No. times =    3     Factors =    66     189    420000  (LYMAT)
     Size List 6.   Number of entries in switch table.                  No. flops = 18                  21      1200  (LSWTCH)
     Size List 7.   Number of distinct ALPHANUMERIC data names plus program SPY variables.              25     15000  (LSIZE7)
     Size List 8.   History points of distributed lines.                                              2430    120000  (LPAST)
     Size List 9.   Number of nonlinear elements.                                                        0      2250  (LNONL)
     Size List 10.  Points of nonlinear characteristics.                                                 0      3800  (LCHAR)
     Size List 11.  Number of Type-59 S.M. outputs.                                                      0       720  (LSMOUT)
     Size List 12.  Total number of EMTP output variables.                                              55      2000  (LSIZ12)
     Size List 13.  Working space for batch/SPY plotting.                                            -9999     72800  (LSIZ13)
     Size List 14.  S.M./U.M. connections to TACS.                                                   -9999       510  (LBSTAC)
     Size List 15.  Character storage in bytes for MODELS.                                            3298     90000  (LCTACS)
     Size List 16.  Total number of Type-59 S.M. masses.                                                 0       800  (LIMASS)
     Size List 17.  Number of Type-59 Synchronous machines.                                              0        90  (LSYN)
     Size List 18.  Branch and switch power/energy outputs.                                              0       254  (MAXPE)
     Size List 19.  Total floating-point TACS table space.                                              23    120000  (LTACST)
     Size List 20.  Non-copied recursive convolution data.                                               0    100000  (LFSEM)
     Size List 21.  Total modal/phase [T] matrix storage.                                                9      3000  (LFD)
     Size List 22.  Total recursive convolution history.                                                 0     15000  (LHIST)
     Size List 23.  Giant vectors for renumbering, phasors;  also extrema accumulation.                  93    192000  (LSIZ23)
     Size List 24.  Peak phases of compensation for data.                                                0       120  (LCOMP)
     Size List 25.  Total table space for all U.M usage.                                             -9999     45000  (LSPCUM)
     Size List 26.  Square of max number of coupled phases.                                              9    260000  (LSIZ26)
     Size List 27.  Maximum number of MODELS top variables.                                             44       600  (LSIZ27)
     Size List 28.  MODELS.  Total work space is divided into INTEGER and REAL.  1st, REAL:           1780    210000  (LRTACS)
                             Second  and last,  statistics for INTEGER work space.                    6838         0  (LITACS)
     Size List 29.  RAM disk used by "TAPSAV" table saving (limit is "LABCOM" size LTLABL).          -9999       600  (LSIZ29)
     Size List 30.  Taku Noda frequency-dependent circuits.                                              0        19  (LSIZ30)
Timing figures characterizing central processor (CP) solution speed.  ----------------------------   CP sec  Wait sec  Real sec
     Data input time (through blank card ending branches) ....                                       0.016     0.000     0.016
     Node renumbering and phasor solution  ....                                                      0.000     0.000     0.000
     After phasor solution, but before time-step loop  ....                                          0.000     0.000     0.000
     Integration of equations (time-step loop)  ....                                                 1.188     0.000     1.188
     Plotting or STATISTICS termination overlays ....                                                0.000     0.000     0.000
                                                                                                    ---------------------------
                                                                                          Totals      1.203     0.000     1.203

