   ---   236   cards of disk file read into card cache cells  1   onward.
 Comment card is ignored.      |C   LBUS  LBRNCH   LDATA   LEXCT   LYMAT  LSWTCH
 Limit CIDEAL cards =   200    |CARDS        200 { Limit of CIDEAL will be 2 mor
 1st card (Lists  1-10).       |    6000   10000  192000     900  420000    120
 Comment card is ignored.      |C LSMOUT  LSIZ12  LSIZ13  LBSTAC  LCTACS  LIMASS
 2nd card (Lists 11-20).       |     720    2000   72800     510   90000     80
 Comment card is ignored.      |C    LFD   LHIST  LSIZ23   NCOMP  LSPCUM  LSIZ26
 3rd card (Lists 21-30).       |    3000   15000  192000     120   45000  26000
 4th card (Lists 31-32).       |     200     300     { Optional card for Lists
 Comment card is ignored.      |C  LWORK  LMARTI
 Supplemental offsets.         |  840000     742
 <===> Done with  "/"-card sorting by data class.    Remember that the source file appears different from interpreted input data.
Alternative Transients Program (ATP),  GNU Linux or DOS.  All rights reserved by Can/Am user group of Portland, Oregon, USA.
 Date (dd-mth-yy) and time of day (hh.mm.ss) = 28-Feb-22  19:10:27   Name of disk plot file is  pdraw6.3\bernal\energizacion456.pl4
Consult the 860-page ATP Rule Book of the Can/Am EMTP User Group in Portland,  Oregon, USA.  Source code date is 12 August 2008.
Total size of LABCOM tables = 10913436 INTEGER words.  31 VARDIM  List Sizes follow:  6002  10K  192K  900  420K  1200  15K
  120K  2250  3800  720  2K  72800  510  90K  800  90  254  120K  100K  3K  15K  192K  120  45K  260K  600  210K  1100  60  200
--------------------------------------------------+--------------------------------------------------------------------------------
Descriptive interpretation of input data cards.   |  Input data card images are shown below, all 80 columns, character by character
                                                  0         1         2         3         4         5         6         7         8
                                                  012345678901234567890123456789012345678901234567890123456789012345678901234567890
--------------------------------------------------+--------------------------------------------------------------------------------
Comment card.   NUMDCD = 1.                       |C data:C:\ATP\ATPDRAW6.3\BERNAL\ENERGIZACION456.ATP
Marker card preceding new EMTP data case.         |BEGIN NEW DATA CASE
Comment card.   NUMDCD = 3.                       |C --------------------------------------------------------
Comment card.   NUMDCD = 4.                       |C Generated by ATPDRAW  febrero, lunes 28, 2022
Comment card.   NUMDCD = 5.                       |C A Bonneville Power Administration program
Comment card.   NUMDCD = 6.                       |C by H. K. Høidalen at SEfAS/NTNU - NORWAY 1994-2016
Comment card.   NUMDCD = 7.                       |C --------------------------------------------------------
Comment card.   NUMDCD = 8.                       |C  dT  >< Tmax >< Xopt >< Copt ><Epsiln>
Misc. data.     1.000E-06   1.200E-01   5.000E+01 |   1.E-6     .12     50.
Misc. data.    500    1  0  1  1  0  0  0  0  0   |     500       1       0       1       1       0       0       0       0
  ///  Warning.  Nonzero XOPT or COPT differs from the power frequency of  6.00000000E+01  Hz.   Did the user really want this?
No TACS data,  but MODELS data begins (next).     |MODELS
      Another ordinary MODELS data card.          |OUTPUT
      Another ordinary MODELS data card.          |  AnVol
      Another ordinary MODELS data card.          |  LONG
      Another ordinary MODELS data card.          |  R0F
      Another ordinary MODELS data card.          |  R1F
      Another ordinary MODELS data card.          |  X0F
      Another ordinary MODELS data card.          |  X1F
      Another ordinary MODELS data card.          |  RDIVX
      Another ordinary MODELS data card.          |  RINSER
      Another ordinary MODELS data card.          |  CLOSE1
      Another ordinary MODELS data card.          |  RPpos
      Another ordinary MODELS data card.          |  RPcero
      Another ordinary MODELS data card.          |  LPpos
      Another ordinary MODELS data card.          |  LPcero
      Another ordinary MODELS data card.          |  CPpos
      Another ordinary MODELS data card.          |  CPcero
      Another ordinary MODELS data card.          |  Xp
      Another ordinary MODELS data card.          |  CR
      Another ordinary MODELS data card.          |  SIMET
      Another ordinary MODELS data card.          |  ENC1
      Another ordinary MODELS data card.          |  ENC2
      Another ordinary MODELS data card.          |  ENC1AS
      Another ordinary MODELS data card.          |  ENC2AS
      Another ordinary MODELS data card.          |MODEL DEFAULT
      Another ordinary MODELS data card.          |DATA AnVol,LONG,R0F,R1F,X0F,X1F,RDIVX,RINSER,CLOSE1,RPpos,RPcero,LPpos,LPcero
      Another ordinary MODELS data card.          |OUTPUT o1,o2,o3, o4, o5, o6, o7, o8, o9, o10, o11, o12, o13
      Another ordinary MODELS data card.          |VAR o1,o2,o3, o4, o5, o6, o7, o8, o9, o10, o11, o12, o13
      Another ordinary MODELS data card.          |INIT
      Another ordinary MODELS data card.          |  o1:=AnVol
      Another ordinary MODELS data card.          |  o2:=LONG
      Another ordinary MODELS data card.          |  o3:=R0F
      Another ordinary MODELS data card.          |  o4:=R1F
      Another ordinary MODELS data card.          |  o5:=X0F
      Another ordinary MODELS data card.          |  O6:=X1F
      Another ordinary MODELS data card.          |  o7:=RDIVX
      Another ordinary MODELS data card.          |  o8:=RINSER
      Another ordinary MODELS data card.          |  o9:=CLOSE1
      Another ordinary MODELS data card.          |  o10:=RPpos
      Another ordinary MODELS data card.          |  o11:=RPcero
      Another ordinary MODELS data card.          |  o12:=LPpos
      Another ordinary MODELS data card.          |  o13:=LPcero
      Another ordinary MODELS data card.          |
      Another ordinary MODELS data card.          |ENDINIT
      Another ordinary MODELS data card.          |EXEC
      Another ordinary MODELS data card.          |ENDEXEC
      Another ordinary MODELS data card.          |ENDMODEL
      Another ordinary MODELS data card.          |MODEL DEFAULT1
      Another ordinary MODELS data card.          |DATA CPpos,CPcero,Xp,CR,SIMET,ENC1,ENC2,ENC1AS,ENC2AS
      Another ordinary MODELS data card.          |OUTPUT o1, o2, o3, o4, o5, o6, o7, o8, o9
      Another ordinary MODELS data card.          |VAR o1, o2, o3, o4, o5, o6, o7, o8, o9
      Another ordinary MODELS data card.          |INIT
      Another ordinary MODELS data card.          |  o1:=CPpos
      Another ordinary MODELS data card.          |  o2:=CPcero
      Another ordinary MODELS data card.          |  o3:=Xp
      Another ordinary MODELS data card.          |  o4:=CR
      Another ordinary MODELS data card.          |  o5:=SIMET
      Another ordinary MODELS data card.          |  o6:=ENC1
      Another ordinary MODELS data card.          |  o7:=ENC2
      Another ordinary MODELS data card.          |  o8:=ENC1AS
      Another ordinary MODELS data card.          |  o9:=ENC2AS
      Another ordinary MODELS data card.          |
      Another ordinary MODELS data card.          |ENDINIT
      Another ordinary MODELS data card.          |EXEC
      Another ordinary MODELS data card.          |ENDEXEC
      Another ordinary MODELS data card.          |ENDMODEL
      Another ordinary MODELS data card.          |USE DEFAULT AS DEFAULT
      Another ordinary MODELS data card.          |DATA
      Another ordinary MODELS data card.          |  AnVol:=      0.0
      Another ordinary MODELS data card.          |  LONG:= 132.2308
      Another ordinary MODELS data card.          |  R0F:= 1.772706
      Another ordinary MODELS data card.          |  R1F:= 1.896508
      Another ordinary MODELS data card.          |  X0F:= 7.833122
      Another ordinary MODELS data card.          |  X1F:=  8.38017
      Another ordinary MODELS data card.          |  RDIVX:= 0.226309
      Another ordinary MODELS data card.          |  RINSER:=     420.
      Another ordinary MODELS data card.          |  CLOSE1:= 0.053218
      Another ordinary MODELS data card.          |  RPpos:= 0.022308
      Another ordinary MODELS data card.          |  RPcero:=  0.35349
      Another ordinary MODELS data card.          |  LPpos:= 0.246922
      Another ordinary MODELS data card.          |  LPcero:= 0.899833
      Another ordinary MODELS data card.          |OUTPUT
      Another ordinary MODELS data card.          |  AnVol:=o1
      Another ordinary MODELS data card.          |  LONG:=o2
      Another ordinary MODELS data card.          |  R0F:=o3
      Another ordinary MODELS data card.          |  R1F:=o4
      Another ordinary MODELS data card.          |  X0F:=o5
      Another ordinary MODELS data card.          |  X1F:=o6
      Another ordinary MODELS data card.          |  RDIVX:=o7
      Another ordinary MODELS data card.          |  RINSER:=o8
      Another ordinary MODELS data card.          |  CLOSE1:=o9
      Another ordinary MODELS data card.          |  RPpos:=o10
      Another ordinary MODELS data card.          |  RPcero:=o11
      Another ordinary MODELS data card.          |  LPpos:=o12
      Another ordinary MODELS data card.          |  LPcero:=o13
      Another ordinary MODELS data card.          |ENDUSE
      Another ordinary MODELS data card.          |USE DEFAULT1 AS DEF
      Another ordinary MODELS data card.          |DATA
      Another ordinary MODELS data card.          |  CPpos:= 0.013629
      Another ordinary MODELS data card.          |  CPcero:= 0.007592
      Another ordinary MODELS data card.          |  Xp:= 2717.226
      Another ordinary MODELS data card.          |  CR:= 54.34453
      Another ordinary MODELS data card.          |  SIMET:=       1.
      Another ordinary MODELS data card.          |  ENC1:=      0.0
      Another ordinary MODELS data card.          |  ENC2:=       1.
      Another ordinary MODELS data card.          |  ENC1AS:=      0.0
      Another ordinary MODELS data card.          |  ENC2AS:=      0.0
      Another ordinary MODELS data card.          |OUTPUT
      Another ordinary MODELS data card.          |  CPpos:=o1
      Another ordinary MODELS data card.          |  CPcero:=o2
      Another ordinary MODELS data card.          |  Xp:=o3
      Another ordinary MODELS data card.          |  CR:=o4
      Another ordinary MODELS data card.          |  SIMET:=o5
      Another ordinary MODELS data card.          |  ENC1:=o6
      Another ordinary MODELS data card.          |  ENC2:=o7
      Another ordinary MODELS data card.          |  ENC1AS:=o8
      Another ordinary MODELS data card.          |  ENC2AS:=o9
      Another ordinary MODELS data card.          |ENDUSE
      Another ordinary MODELS data card.          |RECORD
      Another ordinary MODELS data card.          |  DEFAULT.o1 AS AnVOL
      Another ordinary MODELS data card.          |  DEFAULT.o2 AS LONG
      Another ordinary MODELS data card.          |  DEFAULT.o3 AS R0F
      Another ordinary MODELS data card.          |  DEFAULT.o4 AS R1F
      Another ordinary MODELS data card.          |  DEFAULT.o5 AS X0F
      Another ordinary MODELS data card.          |  DEFAULT.o6 AS X1F
      Another ordinary MODELS data card.          |  DEFAULT.o7 AS RDIVX
      Another ordinary MODELS data card.          |  DEFAULT.o8 AS RINSER
      Another ordinary MODELS data card.          |  DEFAULT.o9 AS CLOSE1
      Another ordinary MODELS data card.          |  DEFAULT.o10 AS RPpos
      Another ordinary MODELS data card.          |  DEFAULT.o11 AS RPcero
      Another ordinary MODELS data card.          |  DEFAULT.o12 AS LPpos
      Another ordinary MODELS data card.          |  DEFAULT.o13 AS LPcero
      Another ordinary MODELS data card.          |  DEF.o1 AS CPpos
      Another ordinary MODELS data card.          |  DEF.o2 AS CPcero
      Another ordinary MODELS data card.          |  DEF.o3 AS Xp
      Another ordinary MODELS data card.          |  DEF.o4 AS CR
      Another ordinary MODELS data card.          |  DEF.o5 AS SIMET
      Another ordinary MODELS data card.          |  DEF.o6 AS ENC1
      Another ordinary MODELS data card.          |  DEF.o7 AS ENC2
      Another ordinary MODELS data card.          |  DEF.o8 AS ENC1AS
      Another ordinary MODELS data card.          |  DEF.o9 AS ENC2AS
Termination of data for Laurent Dube`s MODELS.    |ENDMODELS
Comment card.   NUMDCD = 153.                     |C        1         2         3         4         5         6         7         8
Comment card.   NUMDCD = 154.                     |C 345678901234567890123456789012345678901234567890123456789012345678901234567890
Optional blank card follows last of MODELS data.  |BLANK MODELS
Comment card.   NUMDCD = 156.                     |C < n1 >< n2 ><ref1><ref2>< R  >< L  >< C  >
Comment card.   NUMDCD = 157.                     |C < n1 >< n2 ><ref1><ref2>< R  >< A  >< B  ><Leng><><>0
1st of coupled R-L.   1.77270E+00  2.49336E-02    |51IFUENASB1A              1.77277.8331221067
2nd coil. 1.897E+00 2.667E-02 0.000E+00 0.000E+00 |52IFUENBSB1B              1.8965 8.380169807
Zca, Zcc=-4.127E-02-5.804E-04 1.855E+00 2.609E-02 |53IFUENCSB1C
Series R-L-C.   1.000E+09  0.000E+00  0.000E+00   |  SB1A                      1.E9                                               0
Series R-L-C.   1.000E+09  0.000E+00  0.000E+00   |  SB1B                      1.E9                                               0
Series R-L-C.   1.000E+09  0.000E+00  0.000E+00   |  SB1C                      1.E9                                               0
Series R-L-C.   1.000E+09  0.000E+00  0.000E+00   |  RSNSHA                    1.E9                                               0
Series R-L-C.   1.000E+09  0.000E+00  0.000E+00   |  RSNSHB                    1.E9                                               0
Series R-L-C.   1.000E+09  0.000E+00  0.000E+00   |  RSNSHC                    1.E9                                               0
Series R-L-C.   2.717E+01  4.325E+00  0.000E+00   |  RSNNHA                  27.1721358.6                                         0
Series R-L-C.   2.717E+01  4.325E+00  0.000E+00   |  RSNNHB                  27.1721358.6                                         0
Series R-L-C.   2.717E+01  4.325E+00  0.000E+00   |  RSNNHC                  27.1721358.6                                         0
Series R-L-C.   1.000E+09  0.000E+00  0.000E+00   |  SE2A                      1.E9                                               0
Series R-L-C.   1.000E+09  0.000E+00  0.000E+00   |  SE2B                      1.E9                                               0
Series R-L-C.   1.000E+09  0.000E+00  0.000E+00   |  SE2C                      1.E9                                               0
Series R-L-C.   2.500E+02  0.000E+00  3.000E-10   |  X0001B                    250.       .0003                                   0
Series R-L-C.   2.500E+02  0.000E+00  3.000E-10   |  X0002B                    250.       .0003                                   0
Series R-L-C.   1.000E-06  0.000E+00  0.000E+00   |  X0001ALN1A               1.E-6                                               0
Series R-L-C.   1.000E-06  0.000E+00  0.000E+00   |  SB1A  X0002A             1.E-6                                               0
Series R-L-C.   1.000E-06  0.000E+00  0.000E+00   |  X0001BLN1B               1.E-6                                               0
Series R-L-C.   1.000E-06  0.000E+00  0.000E+00   |  SB1B  X0002B             1.E-6                                               0
Series R-L-C.   1.000E-06  0.000E+00  0.000E+00   |  X0001CLN1C               1.E-6                                               0
Series R-L-C.   1.000E-06  0.000E+00  0.000E+00   |  SB1C  X0002C             1.E-6                                               0
Series R-L-C.   4.200E+02  0.000E+00  0.000E+00   |  XX0005X0002A              420.                                               0
Series R-L-C.   4.200E+02  0.000E+00  0.000E+00   |  XX0003X0002B              420.                                               0
Series R-L-C.   4.200E+02  0.000E+00  0.000E+00   |  XX0004X0002C              420.                                               0
Series R-L-C.   2.500E+02  0.000E+00  3.000E-10   |  X0001A                    250.       .0003                                   0
Series R-L-C.   1.000E+06  0.000E+00  0.000E+00   |  X0001AX0002A              1.E6                                               0
Series R-L-C.   1.000E+06  0.000E+00  0.000E+00   |  X0001BX0002B              1.E6                                               0
Series R-L-C.   1.000E+06  0.000E+00  0.000E+00   |  X0001CX0002C              1.E6                                               0
Series R-L-C.   2.500E+02  0.000E+00  3.000E-10   |  X0002C                    250.       .0003                                   0
Series R-L-C.   2.500E+02  0.000E+00  3.000E-10   |  X0002A                    250.       .0003                                   0
Series R-L-C.   2.500E+02  0.000E+00  3.000E-10   |  X0001C                    250.       .0003                                   0
Series R-L-C.   1.250E+02  0.000E+00  6.000E-10   |  X0001AX0002A              125.       .0006                                   0
Series R-L-C.   1.250E+02  0.000E+00  6.000E-10   |  X0001BX0002B              125.       .0006                                   0
Series R-L-C.   1.250E+02  0.000E+00  6.000E-10   |  X0001CX0002C              125.       .0006                                   0
 3.535E-01 8.998E-01 7.590E-03 6.143E+02 6.165E-04|-1LN1A  VFF2A             .35349.89983.00759132.23 0 0                         0
 2.231E-02 2.469E-01 1.363E-02 2.401E+02 4.328E-04|-2LN1B  VFF2B             .02231.24692.01363132.23 0 0                         0
3rd or later transposed distributed phase.        |-3LN1C  VFF2C                                                                  0
Blank card ending branches.  IBR, NTOT = 39  31   |BLANK BRANCH
Comment card.   NUMDCD = 198.                     |C < n 1>< n 2>< Tclose ><Top/Tde ><   Ie   ><Vf/CLOP ><  type  >
Switch.  -1.00E+00  1.00E+01  0.00E+00  0.00E+00  |  LN1A  COMPA        -1.       10.                                             0
Switch.  -1.00E+00  1.00E+01  0.00E+00  0.00E+00  |  LN1B  COMPB        -1.       10.                                             0
Switch.  -1.00E+00  1.00E+01  0.00E+00  0.00E+00  |  LN1C  COMPC        -1.       10.                                             0
Switch.  -1.00E+00  1.00E+01  0.00E+00  0.00E+00  |  VFF2A RSNNHA       -1.       10.                                             0
Switch.  -1.00E+00  1.00E+01  0.00E+00  0.00E+00  |  VFF2B RSNNHB       -1.       10.                                             0
Switch.  -1.00E+00  1.00E+01  0.00E+00  0.00E+00  |  VFF2C RSNNHC       -1.       10.                                             0
Switch.   2.00E+00 -1.00E+00  0.00E+00  0.00E+00  |  VFF2A SE2A          2.       -1.                                             0
Switch.   2.00E+00 -1.00E+00  0.00E+00  0.00E+00  |  VFF2B SE2B          2.       -1.                                             0
Switch.   2.00E+00 -1.00E+00  0.00E+00  0.00E+00  |  VFF2C SE2C          2.       -1.                                             0
Switch.   5.32E-02  1.00E+03  0.00E+00  0.00E+00  |  X0001BXX0003 .05321848      1.E3                                             0
Switch.   5.32E-02  1.00E+03  0.00E+00  0.00E+00  |  X0001CXX0004 .05321848      1.E3                                             0
Switch.   6.07E-02  1.00E+03  0.00E+00  0.00E+00  |  XX0005X0002A .06071848      1.E3                                             0
Switch.   6.07E-02  1.00E+03  0.00E+00  0.00E+00  |  XX0003X0002B .06071848      1.E3                                             0
Switch.   6.07E-02  1.00E+03  0.00E+00  0.00E+00  |  XX0004X0002C .06071848      1.E3                                             0
Switch.   5.32E-02  1.00E+03  0.00E+00  0.00E+00  |  X0001AXX0005 .05321848      1.E3                                             0
Permanently-closed switch used for metering.      |  VFUENAIFUENA                                        MEASURING                1
Permanently-closed switch used for metering.      |  VFUENBIFUENB                                        MEASURING                1
Permanently-closed switch used for metering.      |  VFUENCIFUENC                                        MEASURING                1
Permanently-closed switch used for metering.      |  COMPA RSNSHA                                        MEASURING                1
Permanently-closed switch used for metering.      |  COMPB RSNSHB                                        MEASURING                1
Permanently-closed switch used for metering.      |  COMPC RSNSHC                                        MEASURING                1
Blank card ending switches.   KSWTCH = 21.        |BLANK SWITCH
Comment card.   NUMDCD = 221.                     |C < n 1><>< Ampl.  >< Freq.  ><Phase/T0><   A1   ><   T1   >< TSTART >< TSTOP  >
Source.   4.29E+05  5.00E+01  0.00E+00 -1.00E+00  |14VFUENA  428660.705       50.                                     -1.      100.
Source.   4.29E+05  5.00E+01 -1.20E+02 -1.00E+00  |14VFUENB  428660.705       50.     -120.                           -1.      100.
Source.   4.29E+05  5.00E+01 -2.40E+02 -1.00E+00  |14VFUENC  428660.705       50.     -240.                           -1.      100.
Blank card ends electric sources.  KCONST = 3     |BLANK SOURCE
Pi-equivalent branches of distributed circuits are added to the table of List Size 3 between indices  40   and  45.

Sinusoidal steady-state phasor solution, branch by branch.   All flows are away from a bus,  and the real part,  magnitude,  or  "P"
is printed above the imaginary part,  the angle,  or  "Q".   The first solution frequency  =  5.00000000E+01  Hertz.
  Bus K                        Phasor  node  voltage              Phasor  branch  current               Power flow       Power loss
             Bus M         Rectangular            Polar          Rectangular            Polar            P  and  Q        P  and  Q

 IFUENA                    428660.705       428660.705      .42981488058538  .44586929350905      92122.374865609  .18851155655268
                                  0.0              0.0      .11856894754376       15.4220777      -25412.92432261        0.8329865

            SB1A      428660.88348399  428660.88350107      -.4298148805854  .44586929350905      -92122.18635405
                      -3.826787693896       -0.0005115      -.1185689475438     -164.5779223      25413.757309086

 IFUENB                  -214330.3525       428660.705      -.1122237196244  .44586929350835      92122.374865748  .18851155655213
                      -371231.0601341     -120.0000000      -.4315150792815     -104.5779223      -25412.92432155        0.8329865

            SB1B      -214333.7558374  428660.88350107      .11222371962442  .44586929350835      -92122.18635419
                       -371229.301312     -120.0005115      .43151507928147       75.4220777      25413.757308023

 IFUENC                  -214330.3525       428660.705      -.3175911609549   .4458692935063      92122.374865746  .18851155654971
                      371231.06013415      120.0000000       .3129461317465      135.4220777       -25412.9243199        0.8329865

            SB1C      -214327.1276466  428660.88350107      .31759116095494   .4458692935063      -92122.18635419
                      371233.12809967      119.9994885      -.3129461317465      -44.5779223      25413.757306376

 SB1A                 428660.88348399  428660.88350107      .42866088348E-3   .4286608835E-3      91.875076521961  91.875076521961
                      -3.826787693896       -0.0005115      -.3826787694E-8       -0.0005115      -.628392568E-19        0.0000000

            TERRA                 0.0              0.0      -.4286608835E-3   .4286608835E-3                  0.0
                                  0.0              0.0      .38267876939E-8      179.9994885                  0.0

 SB1B                 -214333.7558374  428660.88350107      -.2143337558E-3   .4286608835E-3      91.875076521961  91.875076521961
                       -371229.301312     -120.0005115      -.3712293013E-3     -120.0005115      -.180064297E-14        0.0000000

            TERRA                 0.0              0.0      .21433375584E-3   .4286608835E-3                  0.0
                                  0.0              0.0      .37122930131E-3       59.9994885                  0.0

 SB1C                 -214327.1276466  428660.88350107      -.2143271276E-3   .4286608835E-3      91.875076521961  91.875076521961
                      371233.12809967      119.9994885       .3712331281E-3      119.9994885      -.525968158E-14        0.0000000

            TERRA                 0.0              0.0      .21432712765E-3   .4286608835E-3                  0.0
                                  0.0              0.0      -.3712331281E-3      -60.0005115                  0.0

 RSNSHA               -235.2348562735  2682.8927194473      -.2352348563E-6  .26828927194E-5      .00359895667203  .00359895667203
                      2672.5601782668       95.0301279      .26725601783E-5       95.0301279      -.457927187E-20        0.0000000

            TERRA                 0.0              0.0      .23523485627E-6  .26828927194E-5                  0.0
                                  0.0              0.0      -.2672560178E-5      -84.9698721                  0.0

 RSNSHB               2432.1224356585  2682.8927194474      .24321224357E-5  .26828927194E-5      .00359895667203  .00359895667203
                      -1132.560727745      -24.9698721      -.1132560728E-5      -24.9698721      -.185076699E-18        0.0000000

            TERRA                 0.0              0.0      -.2432122436E-5  .26828927194E-5                  0.0
                                  0.0              0.0      .11325607277E-5      155.0301279                  0.0

 RSNSHC               -2196.887579385  2682.8927194473      -.2196887579E-5  .26828927194E-5      .00359895667203  .00359895667203
                      -1539.999450522     -144.9698721      -.1539999451E-5     -144.9698721      -.893619759E-19        0.0000000

            TERRA                 0.0              0.0      .21968875794E-5  .26828927194E-5                  0.0
                                  0.0              0.0      .15399994505E-5       35.0301279                  0.0

 RSNNHA               -234.0026464643  2643.8598770181      1.9341622362304  1.9456287822916      51.429413876331  51.429413876331
                      2633.4839681976       95.0777770      .21092131808272        6.2235398      2571.4706938166     2571.4706938

            TERRA                 0.0              0.0       -1.93416223623  1.9456287822916                  0.0
                                  0.0              0.0      -.2109213180827     -173.7764602                  0.0

 RSNNHB               2397.6653401504  2643.8598770182      -.7844178984559  1.9456287822917      51.429413876335  51.429413876335
                      -1114.089747708      -24.9222230      -1.780494290657     -113.7764602      2571.4706938167     2571.4706938

            TERRA                 0.0              0.0      .78441789845591  1.9456287822917                  0.0
                                  0.0              0.0      1.7804942906575       66.2235398                  0.0

 RSNNHC               -2163.662693686  2643.8598770181      -1.149744337775  1.9456287822917      51.429413876333  51.429413876333
                       -1519.39422049     -144.9222230      1.5695729725747      126.2235398      2571.4706938167     2571.4706938

            TERRA                 0.0              0.0      1.1497443377745  1.9456287822917                  0.0
                                  0.0              0.0      -1.569572972575      -53.7764602                  0.0

 X0001B               2432.1224355114  2682.8927194876      .10674673476E-3  .25285668167E-3       .7992062683E-5   .7992062683E-5
                      -1132.560728156      -24.9698721      .22921962412E-3       65.0287779      -.3391936750652       -0.3391937

            TERRA                 0.0              0.0      -.1067467348E-3  .25285668167E-3                  0.0
                                  0.0              0.0      -.2292196241E-3     -114.9712221                  0.0

 X0002B               -214333.7558372  428660.88350065      .03498706139189  .04040033646339       .2040233982939   .2040233982939
                      -371229.3013115     -120.0005115      -.0202013049459      -30.0018615      -8659.021958657    -8659.0219587

            TERRA                 0.0              0.0      -.0349870613919  .04040033646339                  0.0
                                  0.0              0.0      .02020130494585      149.9981385                  0.0

 X0001A               -235.2348558438  2682.8927194875      .42965436364284  .43671116981397      53.949732534648  .95358322922E-7
                      2672.5601783449       95.0301279      .07819062375347       10.3140950      583.33515141549              0.0

            LN1A      -235.2348562735  2682.8927194473      -.4296543636428  .43671116981397      -53.94973243929
                      2672.5601782668       95.0301279      -.0781906237535     -169.6859050      -583.3351514155

 SB1A                 428660.88348399  428660.88350107      .42939791455865  .44546735604084      92032.817841345   .9922057842E-7
                      -3.826787693896       -0.0005115      .11856895154594       15.4363399      -25413.75736905              0.0

            X0002A    428660.88348356  428660.88350065      -.4293979145586  .44546735604084      -92032.81784125
                      -3.826787812465       -0.0005115      -.1185689515459     -164.5636601      25413.757369054

 X0001B               2432.1224355114  2682.8927194876      -.1471116775065  .43671099327017      53.950247455069  .95358245814E-7
                      -1132.560728156      -24.9698721      -.4111868747714     -109.6858523      583.33486595814              0.0

            LN1B      2432.1224356585  2682.8927194474      .14711167750647  .43671099327017      -53.95024735971
                      -1132.560727745      -24.9698721      .41118687477137       70.3141477      -583.3348659581

 SB1B                 -214333.7558374  428660.88350107       -.112020643428  .44545919879648      92031.572361208  .99216947547E-7
                       -371229.301312     -120.0005115      -.4311441443861     -104.5646516      -25411.69929063              0.0

            X0002B    -214333.7558372  428660.88350065      .11202064342797  .44545919879648      -92031.57236111
                      -371229.3013115     -120.0005115      .43114414438605       75.4353484      25411.699290632

 X0001C               -2196.887579668  2682.8927194875      -.2825427145581  .43671144791707      53.950268427847  .95358444363E-7
                      -1539.999450189     -144.9698721       .3329962510179      130.3141443      583.33547650569              0.0

            LN1C      -2196.887579385  2682.8927194473      .28254271455808  .43671144791707      -53.95026833249
                      -1539.999450522     -144.9698721      -.3329962510179      -49.6858557      -583.3354765057

 SB1C                 -214327.1276466  428660.88350107      -.3173772711307   .4454565633337      92030.402779012  .99215768046E-7
                      371233.12809967      119.9994885      .31257513910532      135.4367577      -25413.81270569              0.0

            X0002C    -214327.1276463  428660.88350065      .31737727113068   .4454565633337      -92030.40277891
                      371233.12809935      119.9994885      -.3125751391053      -44.5632423      25413.812705693

 XX0005               428660.88348356  428660.88350065                  0.0              0.0                  0.0              0.0
                      -3.826787812465       -0.0005115                  0.0              0.0                  0.0              0.0

            X0002A    428660.88348356  428660.88350065                  0.0              0.0                  0.0
                      -3.826787812465       -0.0005115                  0.0              0.0                  0.0

 XX0003               -214333.7558372  428660.88350065                  0.0              0.0                  0.0              0.0
                      -371229.3013115     -120.0005115                  0.0              0.0                  0.0              0.0

            X0002B    -214333.7558372  428660.88350065                  0.0              0.0                  0.0
                      -371229.3013115     -120.0005115                  0.0              0.0                  0.0

 XX0004               -214327.1276463  428660.88350065                  0.0              0.0                  0.0              0.0
                      371233.12809935      119.9994885                  0.0              0.0                  0.0              0.0

            X0002C    -214327.1276463  428660.88350065                  0.0              0.0                  0.0
                      371233.12809935      119.9994885                  0.0              0.0                  0.0

 X0001A               -235.2348558438  2682.8927194875      -.2518833849E-3  .25285668167E-3       .7992062683E-5   .7992062683E-5
                      2672.5601783449       95.0301279      -.2216442799E-4     -174.9712221      -.3391936750651       -0.3391937

            TERRA                 0.0              0.0      .25188338491E-3  .25285668167E-3                  0.0
                                  0.0              0.0      .22164427987E-4        5.0287779                  0.0

 X0001A               -235.2348558438  2682.8927194875      -.4288961183394  .42890446882004      54.022060898565  91979.521686902
                      2672.5601783449       95.0301279      .00267638696616      179.6424689      -572.8105535092        0.0000000

            X0002A    428660.88348356  428660.88350065      .42889611833941  .42890446882004      91925.499626003
                      -3.826787812465       -0.0005115      -.0026763869662       -0.3575311      572.81055350923

 X0001B               2432.1224355114  2682.8927194876      .21676587827275  .42890446882004      54.022060898566  91979.521686902
                      -1132.560728156      -24.9698721      .37009674058339       59.6424689      -572.8105535092        0.0000000

            X0002B    -214333.7558372  428660.88350065      -.2167658782728  .42890446882004      91925.499626003
                      -371229.3013115     -120.0005115      -.3700967405834     -120.3575311      572.81055350925

 X0001C               -2196.887579668  2682.8927194875      .21213024006665  .42890446882004       54.02206089856  91979.521686902
                      -1539.999450189     -144.9698721      -.3727731275495      -60.3575311      -572.8105535092        0.0000000

            X0002C    -214327.1276463  428660.88350065      -.2121302400667  .42890446882004      91925.499626003
                      371233.12809935      119.9994885      .37277312754954      119.6424689      572.81055350923

 X0002C               -214327.1276463  428660.88350065      -.0349883739686  .04040033646339      .20402339829467  .20402339829467
                      371233.12809935      119.9994885      -.0201990314962     -150.0018615      -8659.021958657    -8659.0219587

            TERRA                 0.0              0.0      .03498837396865  .04040033646339                  0.0
                                  0.0              0.0      .02019903149622       29.9981385                  0.0

 X0002A               428660.88348356  428660.88350065      .13125767556E-5  .04040033646339      .20402339829443  .20402339829443
                      -3.826787812465       -0.0005115      .04040033644207       89.9981385      -8659.021958657    -8659.0219587

            TERRA                 0.0              0.0      -.1312576756E-5  .04040033646339                  0.0
                                  0.0              0.0      -.0404003364421      -90.0018615                  0.0

 X0001C               -2196.887579668  2682.8927194875      .14513665015E-3  .25285668167E-3      .79920626829E-5  .79920626829E-5
                      -1539.999450189     -144.9698721      -.2070551961E-3      -54.9712221      -.3391936750651       -0.3391937

            TERRA                 0.0              0.0      -.1451366502E-3  .25285668167E-3                  0.0
                                  0.0              0.0      .20705519613E-3      125.0287779                  0.0

 X0001A               -235.2348558438  2682.8927194875      -.5063919233E-3  .08084658767777      -107.9720056189  .40851067119623
                      2672.5601783449       95.0301279      -.0808450017401      -90.3588811      -10.18546260949   -17337.7313671

            X0002A    428660.88348356  428660.88350065      .50639192334E-3  .08084658767777      108.38051629009
                      -3.826787812465       -0.0005115      .08084500174012       89.6411189       -17327.5459045

 X0001B               2432.1224355114  2682.8927194876      -.0697606293143  .08084658767777      -107.9720056189   .4085106711956
                      -1132.560728156      -24.9698721      .04086104913994      149.6411189      -10.18546260949   -17337.7313671

            X0002B    -214333.7558372  428660.88350065      .06976062931427  .08084658767777      108.38051629009
                      -371229.3013115     -120.0005115      -.0408610491399      -30.3588811       -17327.5459045

 X0001C               -2196.887579668  2682.8927194875      .07026702123761  .08084658767777      -107.9720056189  .40851067119597
                      -1539.999450189     -144.9698721      .03998395260018       29.6411189      -10.18546260949   -17337.7313671

            X0002C    -214327.1276463  428660.88350065      -.0702670212376  .08084658767777      108.38051629009
                      371233.12809935      119.9994885      -.0399839526002     -150.3588811       -17327.5459045

 LN1A                 -235.2348562735  2682.8927194473      .42965464085304  .43671096752843      53.946154534101  2.5167406577682
                      2672.5601782668       95.0301279       .0781879706417       10.3137460      583.33520979378    -1988.1354840

            VFF2A     -234.0026464643  2643.8598770181       -1.93416223623  1.9456287822916      -51.42941387633
                      2633.4839681976       95.0777770      -.2109213180827     -173.7764602      -2571.470693817

 LN1B                 2432.1224356585  2682.8927194474      -.1471145515805  .43671096752844      53.946154534104  2.5167406577679
                      -1132.560727745      -24.9698721      -.4111858191535     -109.6862540       583.3352097938    -1988.1354840

            VFF2B     2397.6653401504  2643.8598770182       .7844178984559  1.9456287822917      -51.42941387634
                      -1114.089747708      -24.9222230      1.7804942906575       66.2235398      -2571.470693817

 LN1C                 -2196.887579385  2682.8927194473      -.2825400892726  .43671096752844      53.946154534104  2.5167406577763
                      -1539.999450522     -144.9698721      .33299784851177      130.3137460      583.33520979379    -1988.1354840

            VFF2C     -2163.662693686  2643.8598770181      1.1497443377745  1.9456287822917      -51.42941387633
                       -1519.39422049     -144.9222230      -1.569572972575      -53.7764602      -2571.470693817
     Total network loss  P-loss  by summing injections =   2.763704937996E+05

Output for steady-state phasor switch currents.
      Node-K    Node-M            I-real            I-imag            I-magn          Degrees        Power            Reactive
      LN1A      COMPA        -2.73662270E-07    1.94730359E-06    1.96643899E-06      97.9996    2.63433047E-03   -1.36652602E-04
      LN1B      COMPB         2.59344068E-06   -9.10333311E-07    2.74857078E-06     -19.3418    3.66928652E-03   -3.61593499E-04
      LN1C      COMPC        -2.68362343E-06   -1.40954862E-06    3.03128059E-06    -152.2897    4.03316154E-03    5.18079370E-04
      VFF2A     RSNNHA        1.93416224E+00    2.10921318E-01    1.94562878E+00       6.2235    5.14294139E+01    2.57147069E+03
      VFF2B     RSNNHB       -7.84417898E-01   -1.78049429E+00    1.94562878E+00    -113.7765    5.14294139E+01    2.57147069E+03
      VFF2C     RSNNHC       -1.14974434E+00    1.56957297E+00    1.94562878E+00     126.2235    5.14294139E+01    2.57147069E+03
      VFF2A     SE2A              Open              Open              Open             Open          Open              Open
      VFF2B     SE2B              Open              Open              Open             Open          Open              Open
      VFF2C     SE2C              Open              Open              Open             Open          Open              Open
      X0001B    XX0003            Open              Open              Open             Open          Open              Open
      X0001C    XX0004            Open              Open              Open             Open          Open              Open
      XX0005    X0002A            Open              Open              Open             Open          Open              Open
      XX0003    X0002B            Open              Open              Open             Open          Open              Open
      XX0004    X0002C            Open              Open              Open             Open          Open              Open
      X0001A    XX0005            Open              Open              Open             Open          Open              Open
      VFUENA    IFUENA        4.29814881E-01    1.18568948E-01    4.45869294E-01      15.4221    9.21223749E+04   -2.54129243E+04
      VFUENB    IFUENB       -1.12223720E-01   -4.31515079E-01    4.45869294E-01    -104.5779    9.21223749E+04   -2.54129243E+04
      VFUENC    IFUENC       -3.17591161E-01    3.12946132E-01    4.45869294E-01     135.4221    9.21223749E+04   -2.54129243E+04
      COMPA     RSNSHA       -2.73662270E-07    1.94730359E-06    1.96643899E-06      97.9996    2.63433047E-03   -1.36652602E-04
      COMPB     RSNSHB        2.59344068E-06   -9.10333311E-07    2.74857078E-06     -19.3418    3.66928652E-03   -3.61593499E-04
      COMPC     RSNSHC       -2.68362343E-06   -1.40954862E-06    3.03128059E-06    -152.2897    4.03316154E-03    5.18079370E-04

Solution at nodes with known voltage.   Nodes that are shorted together by switches are shown as a group of names, with the printed
result applying to the composite group.   The entry "MVA" is  SQRT( P**2 + Q**2 )  in units of power,  while  "P.F."  is the
associated power factor.
              Node                Source  node  voltage             Injected  source  current              Injected  source  power
              name         Rectangular            Polar          Rectangular            Polar            P  and  Q    MVA and P.F.

               VFUENA
              IFUENA       428660.705       428660.705      .42981488058663  .44586929350842      92122.374865877  95563.322846585
                                  0.0              0.0      .11856894753686       15.4220777      -25412.92432113        0.9639930

               VFUENB
              IFUENB     -214330.3525       428660.705      -.1122237196218  .44586929350885      92122.374865692  95563.322846678
                      -371231.0601341     -120.0000000      -.4315150792827     -104.5779223      -25412.92432215        0.9639930

               VFUENC
              IFUENC     -214330.3525       428660.705       -.317591160953  .44586929350496      92122.374865547  95563.322845845
                      371231.06013415      120.0000000      .31294613174653      135.4220777      -25412.92431954        0.9639930

  +++  Node  "COMPC "  has no connected linear branches.  Add (to ground) the conductance  G = 1.00000000E-18  mhos.
  +++  Node  "COMPB "  has no connected linear branches.  Add (to ground) the conductance  G = 1.00000000E-18  mhos.
  +++  Node  "COMPA "  has no connected linear branches.  Add (to ground) the conductance  G = 1.00000000E-18  mhos.
Card of names for time-step loop output.          |  LN1A  LN1B  LN1C  COMPA COMPB COMPC SB1A  SB1B  SB1C  SE2A  SE2B  SE2C  VFF2A
Card of names for time-step loop output.          |  VFF2B VFF2C IFUENAIFUENBIFUENC
Card of names for time-step loop output.          |-5VFF2A VFF2B VFF2B VFF2C VFF2C VFF2A LN1A  LN1B  LN1B  LN1C  LN1C  LN1A
Card of names for time-step loop output.          |-5SB1A  SB1B  SB1B  SB1C  SB1C  SB1A
Blank card ending requests for output variables.  |BLANK OUTPUT

Column headings for the  55   EMTP output variables follow.  These are divided among the 5 possible classes as follows ....
  First  27     output variables are electric-network voltage differences (upper voltage minus lower voltage);
  Next   6     output variables are branch currents (flowing from the upper node to the lower node);
  Next   22     output variables belong to MODELS (with "MODELS" an internally-added upper name of pair).
   Step      Time      LN1A       LN1B       LN1C       COMPA      COMPB      COMPC      SB1A       SB1B       SB1C       SE2A
 

                       SE2B       SE2C       VFF2A      VFF2B      VFF2C      IFUENA     IFUENB     IFUENC     VFF2A      VFF2B
                                                                                                               VFF2B      VFF2C

                       VFF2C      LN1A       LN1B       LN1C       SB1A       SB1B       SB1C       VFUENA     VFUENB     VFUENC
                       VFF2A      LN1B       LN1C       LN1A       SB1B       SB1C       SB1A       IFUENA     IFUENB     IFUENC

                       COMPA      COMPB      COMPC      MODELS     MODELS     MODELS     MODELS     MODELS     MODELS     MODELS
                       RSNSHA     RSNSHB     RSNSHC     ANVOL      LONG       R0F        R1F        X0F        X1F        RDIVX

                       MODELS     MODELS     MODELS     MODELS     MODELS     MODELS     MODELS     MODELS     MODELS     MODELS
                       RINSER     CLOSE1     RPPOS      RPCERO     LPPOS      LPCERO     CPPOS      CPCERO     XP         CR

                       MODELS     MODELS     MODELS     MODELS     MODELS
                       SIMET      ENC1       ENC2       ENC1AS     ENC2AS
 ***      Phasor I(0) = -2.7366227E-07                     Switch  "LN1A  "  to  "COMPA "  closed in the steady-state.
 ***      Phasor I(0) =  2.5934407E-06                     Switch  "LN1B  "  to  "COMPB "  closed in the steady-state.
 ***      Phasor I(0) = -2.6836234E-06                     Switch  "LN1C  "  to  "COMPC "  closed in the steady-state.
 ***      Phasor I(0) =  1.9341622E+00                     Switch  "VFF2A "  to  "RSNNHA"  closed in the steady-state.
 ***      Phasor I(0) = -7.8441790E-01                     Switch  "VFF2B "  to  "RSNNHB"  closed in the steady-state.
 ***      Phasor I(0) = -1.1497443E+00                     Switch  "VFF2C "  to  "RSNNHC"  closed in the steady-state.
 ***      Phasor I(0) =  4.2981488E-01                     Switch  "VFUENA"  to  "IFUENA"  closed in the steady-state.
 ***      Phasor I(0) = -1.1222372E-01                     Switch  "VFUENB"  to  "IFUENB"  closed in the steady-state.
 ***      Phasor I(0) = -3.1759116E-01                     Switch  "VFUENC"  to  "IFUENC"  closed in the steady-state.
 ***      Phasor I(0) = -2.7366227E-07                     Switch  "COMPA "  to  "RSNSHA"  closed in the steady-state.
 ***      Phasor I(0) =  2.5934407E-06                     Switch  "COMPB "  to  "RSNSHB"  closed in the steady-state.
 ***      Phasor I(0) = -2.6836234E-06                     Switch  "COMPC "  to  "RSNSHC"  closed in the steady-state.
      0       0.0  -235.23486 2432.12244 -2196.8876 -235.23486 2432.12244 -2196.8876 428660.883 -214333.76 -214327.13        0.0
                          0.0        0.0 -234.00265 2397.66534 -2163.6627 428660.705 -214330.35 -214330.35  -2631.668 4561.32803
                     -1929.66 -2667.3573 4629.01002 -1961.6527 642994.639 -6.6281907 -642988.01 .429814881 -.11222372 -.31759116
                   -.27366E-6 .259344E-5 -.26836E-5        0.0   132.2308   1.772706   1.896508   7.833122    8.38017    .226309
                         420.    .053218    .022308     .35349    .246922    .899833    .013629    .007592   2717.226   54.34453
                          1.0        0.0        1.0        0.0        0.0
    500     .5E-3  -650.41914 2579.35044 -1928.9313 -650.41914 2579.35044 -1928.9313 423383.962  -153621.9 -269762.06        0.0
                          0.0        0.0 -643.08797 2542.42747 -1899.3395  423383.18 -153618.26 -269764.92 -3185.5154 4441.76698
                   -1256.2515 -3229.7696 4508.28175 -1278.5122 577005.859 116140.167 -693146.03 .405965221 -.04333481 -.36263042
                   -.68971E-6 .255743E-5 -.19814E-5        0.0   132.2308   1.772706   1.896508   7.833122    8.38017    .226309
                         420.    .053218    .022308     .35349    .246922    .899833    .013629    .007592   2717.226   54.34453
                          1.0        0.0        1.0        0.0        0.0
   1000     .1E-2  -1049.5889 2663.06679 -1613.4779 -1049.5889 2663.06679 -1613.4779 407681.894 -89127.345 -318554.55        0.0
                          0.0        0.0 -1036.3412 2624.58801 -1588.2468 407680.557 -89123.572 -318556.98 -3660.9292 4212.83479
                   -551.90554 -3712.6557 4276.54471 -563.88906 496809.239 229427.205 -726236.44 .372129854 .026615891 -.39874575
                   -.10893E-5  .28827E-5 -.17933E-5        0.0   132.2308   1.772706   1.896508   7.833122    8.38017    .226309
                         420.    .053218    .022308     .35349    .246922    .899833    .013629    .007592   2717.226   54.34453
                          1.0        0.0        1.0        0.0        0.0
   1500     .0015  -1422.9127 2681.20876 -1258.2961 -1422.9127 2681.20876 -1258.2961 381941.382 -22438.199 -359503.18        0.0
                          0.0        0.0 -1404.0749 2642.12184 -1238.0469 381939.485 -22434.368 -359505.12 -4046.1968 3880.16874
                   166.028029 -4104.1214 3939.50484 164.616598 404379.582 337064.984 -741444.57 .329131304 .095911286 -.42504259
                   -.14309E-5 .266234E-5 -.12314E-5        0.0   132.2308   1.772706   1.896508   7.833122    8.38017    .226309
                         420.    .053218    .022308     .35349    .246922    .899833    .013629    .007592   2717.226   54.34453
                          1.0        0.0        1.0        0.0        0.0
   2000      .002  -1761.2003 2633.33085 -872.13055 -1761.2003 2633.33085 -872.13055 346796.199 44803.4524 -391599.65        0.0
                          0.0        0.0 -1737.2351  2594.5975 -857.36245 346793.795 44807.2448 -391601.04 -4331.8326 3451.95995
                   879.872608 -4394.5311  3505.4614 889.069751 301992.747 436403.104 -738395.85 .278026915 .162845789  -.4408727
                   -.18375E-5 .258111E-5 -.85728E-6        0.0   132.2308   1.772706   1.896508   7.833122    8.38017    .226309
                         420.    .053218    .022308     .35349    .246922    .899833    .013629    .007592   2717.226   54.34453
                          1.0        0.0        1.0        0.0        0.0
   2500     .0025  -2056.1217 2520.61174    -464.49 -2056.1217 2520.61174    -464.49 303111.721 110941.906 -414053.63        0.0
                          0.0        0.0 -2027.6197 2483.18612 -455.56644 303108.891 110945.554 -414054.45 -4510.8058 2938.75255
                   1572.05324 -4576.7335 2985.10175 1591.63174 192169.815 524995.532 -717165.35 .220077121 .225770214 -.44584734
                   -.20838E-5 .277771E-5 -.46639E-6        0.0   132.2308   1.772706   1.896508   7.833122    8.38017    .226309
                         420.    .053218    .022308     .35349    .246922    .899833    .013629    .007592   2717.226   54.34453
                          1.0        0.0        1.0        0.0        0.0
   3000      .003  -2300.4147 2345.82689 -45.412194 -2300.4147 2345.82689 -45.412194 251963.642 174348.593 -426312.23        0.0
                          0.0        0.0 -2268.0767 2310.62994 -42.553271 251960.441 174352.016 -426312.46 -4578.7066 2353.18321
                    2225.5234 -4646.2416 2391.23909 2255.00251 77615.0496 600660.827 -678275.88 .156709346 .283134907 -.43984425
                   -.26088E-5 .228809E-5  -.4864E-7        0.0   132.2308   1.772706   1.896508   7.833122    8.38017    .226309
                         420.    .053218    .022308     .35349    .246922    .899833    .013629    .007592   2717.226   54.34453
                          1.0        0.0        1.0        0.0        0.0
   3500     .0035  -2488.0624 2113.27928 374.783122 -2488.0624 2113.27928 374.783122 194611.377 233462.241 -428073.62        0.0
                          0.0        0.0 -2452.6865 2081.17861 371.507861 194607.888 233465.353 -428073.24 -4533.8651 1709.67075
                   2824.19434 -4601.3417 1738.49615 2862.84552 -38850.865  661535.86 -622684.99 .089481071 .333528772 -.42300984
                   -.27888E-5 .229419E-5 .380736E-6        0.0   132.2308   1.772706   1.896508   7.833122    8.38017    .226309
                         420.    .053218    .022308     .35349    .246922    .899833    .013629    .007592   2717.226   54.34453
                          1.0        0.0        1.0        0.0        0.0
   4000      .004  -2614.4475 1828.69653 785.750933 -2614.4475 1828.69653 785.750933  132467.14 286827.272 -419294.41        0.0
                          0.0        0.0 -2576.9029 1800.48171 776.421157 132463.443 286829.997 -419293.44 -4377.3846 1024.06056
                   3353.32403  -4443.144  1042.9456 3400.19839 -154360.13 706121.683 -551761.55 .020050688 .375709453 -.39576014
                   -.27066E-5 .185405E-5 .852393E-6        0.0   132.2308   1.772706   1.896508   7.833122    8.38017    .226309
                         420.    .053218    .022308     .35349    .246922    .899833    .013629    .007592   2717.226   54.34453
                          1.0        0.0        1.0        0.0        0.0
   4500     .0045  -2676.4547 1499.08452 1177.37016 -2676.4547 1499.08452 1177.37016 67061.1168 333129.666 -400190.78        0.0
                          0.0        0.0 -2637.6678 1475.45112 1162.21664 67057.3081 333131.936 -400189.24 -4113.1189 313.234482
                    3799.8844 -4175.5392  321.71436 3853.82485 -266068.55 733320.448  -467251.9 -.04987249 .408638453 -.35876597
                   -.26197E-5 .148126E-5 .113819E-5        0.0   132.2308   1.772706   1.896508   7.833122    8.38017    .226309
                         420.    .053218    .022308     .35349    .246922    .899833    .013629    .007592   2717.226   54.34453
                          1.0        0.0        1.0        0.0        0.0
   5000      .005  -2672.5603 1132.56082 1539.99948 -2672.5603 1132.56082 1539.99948 3.82764369 371229.301 -371233.13        0.0
                          0.0        0.0 -2633.4839 1114.08975 1519.39411 -.45661E-7  371231.06 -371231.06 -3747.5736 -405.30436
                   4152.87798 -3805.1211 -407.43866 4212.55979 -371225.47 742462.429 -371236.96 -.11856893 .431506066 -.31293714
                   -.26164E-5 .126662E-5 .157696E-5        0.0   132.2308   1.772706   1.896508   7.833122    8.38017    .226309
                         420.    .053218    .022308     .35349    .246922    .899833    .013629    .007592   2717.226   54.34453
                          1.0        0.0        1.0        0.0        0.0
   5500     .0055  -2602.8579 738.149396 1864.70849 -2602.8579 738.149396 1864.70849 -67053.559  400188.04 -333134.48        0.0
                          0.0        0.0 -2564.4553 725.295986 1839.15936 -67057.308 400189.244 -333131.94 -3289.7513 -1113.8634
                   4403.61471 -3341.0073 -1126.5591 4467.56638  -467241.6 733322.522 -266080.92 -.18434502 .443748175 -.25940315
                   -.25761E-5 .807953E-6 .188209E-5        0.0   132.2308   1.772706   1.896508   7.833122    8.38017    .226309
                         420.    .053218    .022308     .35349    .246922    .899833    .013629    .007592   2717.226   54.34453
                          1.0        0.0        1.0        0.0        0.0
   6000      .006  -2469.0643 325.562141 2143.50215 -2469.0643 325.562141 2143.50215 -132459.86 419292.819 -286832.96        0.0
                          0.0        0.0 -2432.2812 318.642954 2113.63824 -132463.44  419293.44   -286830. -2750.9241 -1794.9953
                   4545.91943 -2794.6264   -1817.94 4612.56643 -551752.68  706125.78  -154373.1 -.24558292 .445064223 -.19948131
                   -.27238E-5 .332756E-6 .222051E-5        0.0   132.2308   1.772706   1.896508   7.833122    8.38017    .226309
                         420.    .053218    .022308     .35349    .246922    .899833    .013629    .007592   2717.226   54.34453
                          1.0        0.0        1.0        0.0        0.0
   6500     .0065  -2274.4742 -95.041491 2369.51564 -2274.4742 -95.041491 2369.51564 -194604.56 428073.218 -233468.66        0.0
                          0.0        0.0 -2240.2159 -95.856301 2336.07218 -194607.89  428073.24 -233465.35 -2144.3596 -2431.9285
                   4576.28807 -2179.4327 -2464.5571  4643.9898 -622677.78 661541.878 -38864.102 -.30077287  .43542088 -.13464801
                   -.24184E-5 -.10197E-6 .249199E-5        0.0   132.2308   1.772706   1.896508   7.833122    8.38017    .226309
                         420.    .053218    .022308     .35349    .246922    .899833    .013629    .007592   2717.226   54.34453
                          1.0        0.0        1.0        0.0        0.0
   7000      .007  -2023.8786 -513.30503 2537.18364 -2023.8786 -513.30503 2537.18364 -251957.45 426313.035 -174355.58        0.0
                          0.0        0.0 -1992.9902 -507.99469 2500.98492 -251960.44 426312.457 -174352.02 -1484.9955 -3008.9796
                   4493.97514 -1510.5736 -3050.4887 4561.06225 -678270.49 600668.619 77601.8676 -.34855666 .415055954  -.0664993
                   -.21267E-5 -.53425E-6 .266102E-5        0.0   132.2308   1.772706   1.896508   7.833122    8.38017    .226309
                         420.    .053218    .022308     .35349    .246922    .899833    .013629    .007592   2717.226   54.34453
                          1.0        0.0        1.0        0.0        0.0
   7500     .0075  -1723.4494 -918.92889 2642.37826 -1723.4494 -918.92889 2642.37826 -303106.31 414055.608  -110949.3        0.0
                          0.0        0.0 -1696.6888 -907.62538 2604.31418 -303108.89 414054.446 -110945.55 -789.06341 -3511.9396
                   4301.00297 -804.52048 -3561.3071 4365.82763 -717161.92 525004.905 192157.014 -.38775828 .384471206 .003287078
                   -.17816E-5  -.1009E-5 .279048E-5        0.0   132.2308   1.772706   1.896508   7.833122    8.38017    .226309
                         420.    .053218    .022308     .35349    .246922    .899833    .013629    .007592   2717.226   54.34453
                          1.0        0.0        1.0        0.0        0.0
   8000      .008  -1380.5825 -1301.9259 2682.50843 -1380.5825 -1301.9259 2682.50843 -346791.69 391602.761 -44811.067        0.0
                          0.0        0.0  -1358.611 -1284.9065  2643.5175  -346793.8  391601.04 -44807.245 -73.704458  -3928.424
                   4002.12847 -78.656644 -3984.4343 4063.09097 -738394.46 436413.829 301980.627 -.41741235 .344419668 .072992684
                    -.1486E-5 -.13305E-5 .281632E-5        0.0   132.2308   1.772706   1.896508   7.833122    8.38017    .226309
                         420.    .053218    .022308     .35349    .246922    .899833    .013629    .007592   2717.226   54.34453
                          1.0        0.0        1.0        0.0        0.0
   8500     .0085  -1003.7213 -1652.8652 2656.58645 -1003.7213 -1652.8652 2656.58645 -381937.91 359507.351 22430.5557        0.0
                          0.0        0.0 -987.07857 -1630.5495 2617.62805 -381939.48 359505.117 22434.3679 643.470916 -4248.1775
                   3604.70662  649.14387 -4309.4516 3660.30773 -741445.26 337076.795 404368.462 -.43678786 .295887134 .140900723
                   -.10266E-5 -.18171E-5 .284356E-5        0.0   132.2308   1.772706   1.896508   7.833122    8.38017    .226309
                         420.    .053218    .022308     .35349    .246922    .899833    .013629    .007592   2717.226   54.34453
                          1.0        0.0        1.0        0.0        0.0
   9000      .009  -602.14452 -1963.1056 2565.25016 -602.14452 -1963.1056 2565.25016 -407679.54 318559.678  89119.866        0.0
                          0.0        0.0 -591.24168 -1936.0426  2527.2843 -407680.56 318556.985  89123.572 1344.80094 -4463.3269
                   3118.52598 1360.96111 -4528.3558 3167.39468 -726239.22 229439.812  496799.41 -.44540827 .240068915 .205339359
                   -.62921E-6 -.20809E-5 .259629E-5        0.0   132.2308   1.772706   1.896508   7.833122    8.38017    .226309
                         420.    .053218    .022308     .35349    .246922    .899833    .013629    .007592   2717.226   54.34453
                          1.0        0.0        1.0        0.0        0.0
   9500     .0095  -185.74181 -2225.0076 2410.74937 -185.74181 -2225.0076 2410.74937 -423382.76 269768.008 153614.749        0.0
                          0.0        0.0 -180.84598 -2193.8642 2374.71014 -423383.18 269764.922 153618.258 2013.01818 -4568.5743
                   2555.55613 2039.26574 -4635.7569 2596.49118 -693150.77 116153.259 576997.506 -.44306114 .178339345 .264721798
                   -.19124E-6 -.25006E-5 .243611E-5        0.0   132.2308   1.772706   1.896508   7.833122    8.38017    .226309
                         420.    .053218    .022308     .35349    .246922    .899833    .013629    .007592   2717.226   54.34453
                          1.0        0.0        1.0        0.0        0.0
  10000       .01  235.234941 -2432.1226 2196.88767 235.234941 -2432.1226 2196.88767 -428660.88 214333.756 214327.128        0.0
                          0.0        0.0 234.002938 -2397.6656 2163.66265 -428660.71 214330.353 214330.352 2631.66853 -4561.3282
                   1929.65971 2667.35755 -4629.0103 1961.65273 -642994.64 6.62803382 642988.013 -.42980415 .112218352 .317585796
                   .258723E-6 -.27347E-5 .224891E-5        0.0   132.2308   1.772706   1.896508   7.833122    8.38017    .226309
                         420.    .053218    .022308     .35349    .246922    .899833    .013629    .007592   2717.226   54.34453
                          1.0        0.0        1.0        0.0        0.0
  10500     .0105  650.419858 -2579.3509 1928.93107 650.419858 -2579.3509 1928.93107 -423383.96 153621.895 269762.061        0.0
                          0.0        0.0 643.089599 -2542.4284  1899.3388 -423383.18 153618.258 269764.922   3185.518 -4441.7672
                   1256.24921 3229.77078  -4508.282 1278.51121 -577005.85 -116140.17 693146.017 -.40596497 .043334682 .362630286
                   .694547E-6 -.29022E-5 .209431E-5        0.0   132.2308   1.772706   1.896508   7.833122    8.38017    .226309
                         420.    .053218    .022308     .35349    .246922    .899833    .013629    .007592   2717.226   54.34453
                          1.0        0.0        1.0        0.0        0.0
  11000      .011   1049.5882 -2663.0666 1613.47837  1049.5882 -2663.0666 1613.47837 -407681.91 89127.3525 318554.557        0.0
                          0.0        0.0 1036.34107  -2624.588 1588.24698 -407680.56  89123.572 318556.985 3660.92912  -4212.835
                   551.905911 3712.65478 -4276.5449  563.89017 -496809.26  -229427.2 726236.467 -.37212855 -.02661655 .398745099
                   .994432E-6 -.28314E-5 .160944E-5        0.0   132.2308   1.772706   1.896508   7.833122    8.38017    .226309
                         420.    .053218    .022308     .35349    .246922    .899833    .013629    .007592   2717.226   54.34453
                          1.0        0.0        1.0        0.0        0.0
  11500     .0115  1422.91325 -2681.2092 1258.29591 1422.91325 -2681.2092 1258.29591 -381941.38 22438.1985 359503.182        0.0
                          0.0        0.0 1404.07464 -2642.1218 1238.04716 -381939.48 22434.3679 359505.117 4046.19644  -3880.169
                   -166.02748  4104.1224 -3939.5051 -164.61733 -404379.58 -337064.98 741444.563 -.32912947  -.0959122 .425041674
                   .160308E-5 -.29765E-5 .137347E-5        0.0   132.2308   1.772706   1.896508   7.833122    8.38017    .226309
                         420.    .053218    .022308     .35349    .246922    .899833    .013629    .007592   2717.226   54.34453
                          1.0        0.0        1.0        0.0        0.0
  12000      .012  1761.20062 -2633.3311 872.130488 1761.20062 -2633.3311 872.130488 -346796.19 -44803.458 391599.646        0.0
                          0.0        0.0 1737.23544 -2594.5978  857.36236  -346793.8 -44807.245  391601.04 4331.83324 -3451.9602
                   -879.87308 4394.53172 -3505.4616 -889.07013 -301992.73  -436403.1 738395.835 -.27802593 -.16284628 .440872209
                   .182368E-5 -.26894E-5 .865897E-6        0.0   132.2308   1.772706   1.896508   7.833122    8.38017    .226309
                         420.    .053218    .022308     .35349    .246922    .899833    .013629    .007592   2717.226   54.34453
                          1.0        0.0        1.0        0.0        0.0
  12500     .0125  2056.12172 -2520.6118 464.490107 2056.12172 -2520.6118 464.490107 -303111.73  -110941.9 414053.629        0.0
                          0.0        0.0 2027.61935  -2483.186 455.566684 -303108.89 -110945.55 414054.446 4510.80539 -2938.7527
                   -1572.0527 4576.73355 -2985.1019 -1591.6316 -192169.82 -524995.53 717165.354 -.22007673 -.22577041  .44584714
                   .228011E-5 -.26479E-5 .481523E-6        0.0   132.2308   1.772706   1.896508   7.833122    8.38017    .226309
                         420.    .053218    .022308     .35349    .246922    .899833    .013629    .007592   2717.226   54.34453
                          1.0        0.0        1.0        0.0        0.0
  13000      .013  2300.41321 -2345.8262 45.4129778 2300.41321 -2345.8262 45.4129778 -251963.64 -174348.59 426312.235        0.0
                          0.0        0.0  2268.0769 -2310.6301 42.5532416 -251960.44 -174352.02 426312.457 4578.70705 -2353.1834
                   -2225.5237 4646.23941 -2391.2392 -2255.0002 -77615.051 -600660.83 678275.878 -.15670822 -.28313547  .43984369
                   .231635E-5 -.23677E-5 .442524E-7        0.0   132.2308   1.772706   1.896508   7.833122    8.38017    .226309
                         420.    .053218    .022308     .35349    .246922    .899833    .013629    .007592   2717.226   54.34453
                          1.0        0.0        1.0        0.0        0.0
  13500     .0135  2488.06332 -2113.2798 -374.78355 2488.06332 -2113.2798 -374.78355 -194611.38 -233462.24 428073.619        0.0
                          0.0        0.0 2452.68719  -2081.179 -371.50819 -194607.89 -233465.35  428073.24  4533.8662 -1709.6708
                   -2824.1954 4601.34309 -1738.4962 -2862.8469 38850.8614 -661535.86 622684.998 -.08948163  -.3335285 .423010124
                   .253413E-5 -.23926E-5  -.3688E-6        0.0   132.2308   1.772706   1.896508   7.833122    8.38017    .226309
                         420.    .053218    .022308     .35349    .246922    .899833    .013629    .007592   2717.226   54.34453
                          1.0        0.0        1.0        0.0        0.0
  14000      .014  2614.44753 -1828.6966 -785.75095 2614.44753 -1828.6966 -785.75095 -132467.14 -286827.27 419294.411        0.0
                          0.0        0.0 2576.90307 -1800.4818 -776.42124 -132463.44   -286830.  419293.44  4377.3849 -1024.0606
                   -3353.3243 4443.14412 -1042.9456 -3400.1985 154360.134 -706121.68 551761.549 -.02005111 -.37570924 .395760349
                   .255608E-5 -.20069E-5 -.77655E-6        0.0   132.2308   1.772706   1.896508   7.833122    8.38017    .226309
                         420.    .053218    .022308     .35349    .246922    .899833    .013629    .007592   2717.226   54.34453
                          1.0        0.0        1.0        0.0        0.0
  14500     .0145  2676.45572  -1499.085 -1177.3707 2676.45572  -1499.085 -1177.3707 -67061.116 -333129.67 400190.782        0.0
                          0.0        0.0 2637.66808 -1475.4513 -1162.2168 -67057.308 -333131.94 400189.244 4113.11936 -313.23448
                   -3799.8849 4175.54076 -321.71435 -3853.8264 266068.551 -733320.45 467251.898 .049873053 -.40863874 .358765684
                   .269443E-5 -.15184E-5 -.11759E-5        0.0   132.2308   1.772706   1.896508   7.833122    8.38017    .226309
                         420.    .053218    .022308     .35349    .246922    .899833    .013629    .007592   2717.226   54.34453
                          1.0        0.0        1.0        0.0        0.0
  % % % % % %   Suspended simulation;  plot data space exhausted;  SPY SPACE is required.   LIMBUF =  840000.
  % % % % % %   Suspended simulation;  plot data space exhausted;  SPY SPACE is required.   LIMBUF =  840000.
  +++  Time-sharing disabled.   Send  user-keyed interrupt to silence alarm.
   Current values.  INDBUF  INDBEG  LIMBUF  MFLUSH  NUMDCD  KCARD1  KCARD2
                    839994      50  840000    1000     230       1     231
Plot timespan now in memory (in sec) = 0.00000000E+00   1.49990000E-02
   ++++  Begin plot-data copy from memory to disk.   MFLUSH, INDBUF, N4, Tbeg,  Tend = 1001  839994       1  -1.00000E+00
1.00000E+19
  15000      .015  2672.56036 -1132.5608 -1539.9995 2672.56036 -1132.5608 -1539.9995 -3.8277316  -371229.3 371233.129        0.0
                          0.0        0.0 2633.48427 -1114.0899 -1519.3943 -.61533E-6 -371231.06  371231.06  3747.5742 405.304413
                   -4152.8786 3805.12119   407.4387 -4212.5599 371225.473 -742462.43 371236.956 .118568711 -.43150596 .312937247
                   .277564E-5 -.11195E-5 -.16562E-5        0.0   132.2308   1.772706   1.896508   7.833122    8.38017    .226309
                         420.    .053218    .022308     .35349    .246922    .899833    .013629    .007592   2717.226   54.34453
                          1.0        0.0        1.0        0.0        0.0
  15500     .0155  2602.85788 -738.14935 -1864.7085 2602.85788 -738.14935 -1864.7085 67053.5557 -400188.04 333134.483        0.0
                          0.0        0.0 2564.45559 -725.29607 -1839.1595 67057.3081 -400189.24 333131.936 3289.75166 1113.86345
                   -4403.6151 3341.00723 1126.55918 -4467.5664 467241.594 -733322.52 266080.927 .184345436 -.44374838 .259402947
                   .274651E-5 -.77834E-6  -.1968E-5        0.0   132.2308   1.772706   1.896508   7.833122    8.38017    .226309
                         420.    .053218    .022308     .35349    .246922    .899833    .013629    .007592   2717.226   54.34453
                          1.0        0.0        1.0        0.0        0.0
  16000      .016   2469.0646 -325.56225 -2143.5024  2469.0646 -325.56225 -2143.5024 132459.859 -419292.82 286832.961        0.0
                          0.0        0.0 2432.28153 -318.64306 -2113.6385 132463.443 -419293.44 286829.997 2750.92459 1794.99541
                     -4545.92 2794.62685 1817.94011  -4612.567 551752.678 -706125.78 154373.102 .245582484 -.44506401 .199481524
                   .256112E-5  -.3652E-6 -.23666E-5        0.0   132.2308   1.772706   1.896508   7.833122    8.38017    .226309
                         420.    .053218    .022308     .35349    .246922    .899833    .013629    .007592   2717.226   54.34453
                          1.0        0.0        1.0        0.0        0.0
  16500     .0165   2274.4751 95.0411141 -2369.5162  2274.4751 95.0411141 -2369.5162  194604.56 -428073.22 233468.659        0.0
                          0.0        0.0 2240.21667 95.8559963 -2336.0727 194607.888 -428073.24 233465.353 2144.36067 2431.92866
                   -4576.2893 2179.43399 2464.55733 -4643.9913 622677.778 -661541.88 38864.0992 .300772859 -.43542087 .134648014
                   .232319E-5 .929602E-7 -.24445E-5        0.0   132.2308   1.772706   1.896508   7.833122    8.38017    .226309
                         420.    .053218    .022308     .35349    .246922    .899833    .013629    .007592   2717.226   54.34453
                          1.0        0.0        1.0        0.0        0.0
  17000      .017  2023.87924 513.304819 -2537.1841 2023.87924 513.304819 -2537.1841 251957.449 -426313.03 174355.585        0.0
                          0.0        0.0 1992.99016 507.994824  -2500.985 251960.441 -426312.46 174352.016 1484.99534 3008.97981
                   -4493.9751 1510.57442 3050.48887 -4561.0633 678270.483 -600668.62 -77601.864 .348557075 -.41505616 .066499088
                   .215951E-5 .518011E-6 -.25642E-5        0.0   132.2308   1.772706   1.896508   7.833122    8.38017    .226309
                         420.    .053218    .022308     .35349    .246922    .899833    .013629    .007592   2717.226   54.34453
                          1.0        0.0        1.0        0.0        0.0
  17500     .0175   1723.4498 918.928781 -2642.3786  1723.4498 918.928781 -2642.3786 303106.312 -414055.61 110949.297        0.0
                          0.0        0.0 1696.68985  907.62497 -2604.3148 303108.891 -414054.45 110945.554 789.064878 3511.93979
                   -4301.0047 804.521023 3561.30737 -4365.8284 717161.921 -525004.91 -192157.02 .387758488 -.38447131 -.00328718
                   .188544E-5 .956848E-6 -.27285E-5        0.0   132.2308   1.772706   1.896508   7.833122    8.38017    .226309
                         420.    .053218    .022308     .35349    .246922    .899833    .013629    .007592   2717.226   54.34453
                          1.0        0.0        1.0        0.0        0.0
  18000      .018  1380.58258 1301.92599 -2682.5086 1380.58258 1301.92599 -2682.5086  346791.69 -391602.76 44811.0695        0.0
                          0.0        0.0 1358.61094 1284.90665 -2643.5176 346793.795 -391601.04 44807.2448 73.7042909 3928.42424
                   -4002.1285 78.6565895 3984.43457 -4063.0912 738394.449 -436413.83 -301980.62 .417412093 -.34441954 -.07299255
                   .141826E-5 .125167E-5 -.28973E-5        0.0   132.2308   1.772706   1.896508   7.833122    8.38017    .226309
                         420.    .053218    .022308     .35349    .246922    .899833    .013629    .007592   2717.226   54.34453
                          1.0        0.0        1.0        0.0        0.0
  18500     .0185  1003.72129 1652.86527 -2656.5866 1003.72129 1652.86527 -2656.5866 381937.907 -359507.35 -22430.556        0.0
                          0.0        0.0 987.078924 1630.54943 -2617.6284 381939.485 -359505.12 -22434.368 -643.47051 4248.17778
                   -3604.7073 -649.14398 4309.45184 -3660.3079 741445.258  -337076.8 -404368.46 .436787773 -.29588709 -.14090068
                    .11036E-5 .177871E-5 -.28822E-5        0.0   132.2308   1.772706   1.896508   7.833122    8.38017    .226309
                         420.    .053218    .022308     .35349    .246922    .899833    .013629    .007592   2717.226   54.34453
                          1.0        0.0        1.0        0.0        0.0
  19000      .019  602.145007 1963.10552 -2565.2505 602.145007 1963.10552 -2565.2505 407679.544 -318559.68 -89119.866        0.0
                          0.0        0.0 591.241668 1936.04274 -2527.2844 407680.557 -318556.98 -89123.572 -1344.8011 4463.32715
                   -3118.5261 -1360.9605 4528.35604 -3167.3955 726239.222 -229439.81 -496799.41 .445408166 -.24006886  -.2053393
                   .684774E-6 .205352E-5 -.26245E-5        0.0   132.2308   1.772706   1.896508   7.833122    8.38017    .226309
                         420.    .053218    .022308     .35349    .246922    .899833    .013629    .007592   2717.226   54.34453
                          1.0        0.0        1.0        0.0        0.0
  19500     .0195  185.741705  2225.0077 -2410.7494 185.741705  2225.0077 -2410.7494 423382.758 -269768.01 -153614.75        0.0
                          0.0        0.0 180.846055 2193.86428 -2374.7103  423383.18 -269764.92 -153618.26 -2013.0182 4568.57461
                   -2555.5564  -2039.266 4635.75711 -2596.4911 693150.766 -116153.26 -576997.51 .443061096 -.17833932 -.26472178
                   .184233E-6 .247487E-5 -.24601E-5        0.0   132.2308   1.772706   1.896508   7.833122    8.38017    .226309
                         420.    .053218    .022308     .35349    .246922    .899833    .013629    .007592   2717.226   54.34453
                          1.0        0.0        1.0        0.0        0.0
  20000       .02  -235.23492 2432.12272 -2196.8878 -235.23492 2432.12272 -2196.8878 428660.882 -214333.75 -214327.13        0.0
                          0.0        0.0 -234.00264 2397.66556 -2163.6629 428660.705 -214330.35 -214330.35 -2631.6682 4561.32848
                   -1929.6603 -2667.3576 4629.01051 -1961.6529 642994.637 -6.6280428 -642988.01 .429804612 -.11221859 -.31758603
                   -.23668E-6  .24261E-5 -.21041E-5        0.0   132.2308   1.772706   1.896508   7.833122    8.38017    .226309
                         420.    .053218    .022308     .35349    .246922    .899833    .013629    .007592   2717.226   54.34453
                          1.0        0.0        1.0        0.0        0.0
  20500     .0205  -650.41924 2579.35072 -1928.9315 -650.41924 2579.35072 -1928.9315 423383.955 -153621.89 -269762.06        0.0
                          0.0        0.0 -643.08894 2542.42818 -1899.3392  423383.18 -153618.26 -269764.92 -3185.5171 4441.76742
                   -1256.2503   -3229.77 4508.28221 -1278.5123  577005.85 116140.167 -693146.02 .405964445 -.04333442 -.36263002
                   -.71908E-6 .274486E-5 -.20256E-5        0.0   132.2308   1.772706   1.896508   7.833122    8.38017    .226309
                         420.    .053218    .022308     .35349    .246922    .899833    .013629    .007592   2717.226   54.34453
                          1.0        0.0        1.0        0.0        0.0
  21000      .021  -1049.5884 2663.06676 -1613.4784 -1049.5884 2663.06676 -1613.4784 407681.908 -89127.352 -318554.56        0.0
                          0.0        0.0 -1036.3412 2624.58822  -1588.247 407680.557 -89123.572 -318556.98 -3660.9295 4212.83521
                   -551.90574 -3712.6552 4276.54512 -563.88997  496809.26 229427.205 -726236.46 .372128407  .02661662 -.39874503
                   -.11344E-5 .278811E-5 -.16538E-5        0.0   132.2308   1.772706   1.896508   7.833122    8.38017    .226309
[...]
                         420.    .053218    .022308     .35349    .246922    .899833    .013629    .007592   2717.226   54.34453
                          1.0        0.0        1.0        0.0        0.0
 113000      .113  -241552.93 -186527.82 428080.754 -241552.93 -186527.82 428080.754 -241552.93 -186527.82 428080.754        0.0
                          0.0        0.0 -235584.74 -184673.46 420258.209 -251960.44 -174352.02 426312.457  -50911.28 -604931.67
                   655842.953 -55025.116 -614608.57 669633.689 -55025.116 -614608.57 669633.688 53.8880816 -7.3303185 -46.557762
                    -.2906E-3 -.20317E-3 .493765E-3        0.0   132.2308   1.772706   1.896508   7.833122    8.38017    .226309
                         420.    .053218    .022308     .35349    .246922    .899833    .013629    .007592   2717.226   54.34453
                          1.0        0.0        1.0        0.0        0.0
 113500     .1135  -194045.88 -232947.07 426992.947 -194045.88 -232947.07 426992.947 -194045.88 -232947.07 426992.947        0.0
                          0.0        0.0 -188734.23 -230304.89 419039.122 -194607.89 -233465.35  428073.24 41570.6526 -649344.01
                   607773.357  38901.193 -659940.02 621038.824 38901.1928 -659940.02 621038.824 -33.906528 60.0986716 -26.192143
                   -.22482E-3 -.27306E-3 .526965E-3        0.0   132.2308   1.772706   1.896508   7.833122    8.38017    .226309
                         420.    .053218    .022308     .35349    .246922    .899833    .013629    .007592   2717.226   54.34453
                          1.0        0.0        1.0        0.0        0.0
 114000      .114  -147158.91 -271462.95 418621.861 -147158.91 -271462.95 418621.861 -147158.91 -271462.95 418621.861        0.0
                          0.0        0.0 -148314.97 -264017.47 412332.433 -132463.44   -286830.  419293.44   115702.5  -676349.9
                     560647.4 124304.049 -690084.82 565780.766 124304.049 -690084.82 565780.766 25.3438563 -5.7703326 -19.573523
                   -.14894E-3 -.28617E-3 .493258E-3        0.0   132.2308   1.772706   1.896508   7.833122    8.38017    .226309
                         420.    .053218    .022308     .35349    .246922    .899833    .013629    .007592   2717.226   54.34453
                          1.0        0.0        1.0        0.0        0.0
 114500     .1145   -63237.09 -339402.23 402639.321  -63237.09 -339402.23 402639.321  -63237.09 -339402.23 402639.321        0.0
                          0.0        0.0 -72489.086 -325617.66 398106.741 -67057.308 -333131.94 400189.244  253128.57  -723724.4
                   470595.826  276165.14 -742041.55 465876.411 276165.141 -742041.55 465876.411 118.886443 -106.74568 -12.140766
                   -.71232E-4 -.39267E-3  .49305E-3        0.0   132.2308   1.772706   1.896508   7.833122    8.38017    .226309
                         420.    .053218    .022308     .35349    .246922    .899833    .013629    .007592   2717.226   54.34453
                          1.0        0.0        1.0        0.0        0.0
 115000      .115  10128.8395  -383762.6 373633.759 10128.8395  -383762.6 373633.759 10128.8397  -383762.6 373633.759        0.0
                          0.0        0.0  16400.589 -380650.76  364250.17 .127058E-4 -371231.06  371231.06 397051.347 -744900.93
                   347849.581 393891.438 -757396.36  363504.92 393891.439 -757396.36  363504.92 87.3986869 -86.297048 -1.1016389
                   .110621E-4 -.45689E-3 .438601E-3        0.0   132.2308   1.772706   1.896508   7.833122    8.38017    .226309
                         420.    .053218    .022308     .35349    .246922    .899833    .013629    .007592   2717.226   54.34453
                          1.0        0.0        1.0        0.0        0.0
 115500     .1155  62484.8937 -394850.34 332365.446 62484.8937 -394850.34 332365.446 62484.8937 -394850.34 332365.446        0.0
                          0.0        0.0 76708.7005 -400938.65 324229.949 67057.3081 -400189.24 333131.936  477647.35  -725168.6
                   247521.249 457335.233 -727215.78 269880.552 457335.233 -727215.78 269880.552 -22.489864 8.90658151 13.5832824
                   .746401E-4 -.44591E-3 .371248E-3        0.0   132.2308   1.772706   1.896508   7.833122    8.38017    .226309
                         420.    .053218    .022308     .35349    .246922    .899833    .013629    .007592   2717.226   54.34453
                          1.0        0.0        1.0        0.0        0.0
 116000      .116  126614.201 -413824.63 287210.434 126614.201 -413824.63 287210.434   126614.2 -413824.63 287210.434        0.0
                          0.0        0.0 117154.871 -401032.97 283878.096 132463.443 -419293.44 286829.997 518187.839 -684911.06
                   166723.224 540438.835 -701035.07 160596.233 540438.835 -701035.07 160596.234 -14.641705 1.89549387 12.7462115
                   .145279E-3 -.46677E-3 .336051E-3        0.0   132.2308   1.772706   1.896508   7.833122    8.38017    .226309
                         420.    .053218    .022308     .35349    .246922    .899833    .013629    .007592   2717.226   54.34453
                          1.0        0.0        1.0        0.0        0.0
 116500     .1165  198749.216 -428627.39 229878.172 198749.216 -428627.39 229878.172 198749.216 -428627.39 229878.172        0.0
                          0.0        0.0 175481.107  -405559.1 230077.997 194607.888 -428073.24 233465.353 581040.212  -635637.1
                   54596.8901 627376.604 -658505.56 31128.9565 627376.605 -658505.56 31128.9564 102.998515 -129.19814  26.199623
                   .231829E-3 -.47437E-3 .271648E-3        0.0   132.2308   1.772706   1.896508   7.833122    8.38017    .226309
                         420.    .053218    .022308     .35349    .246922    .899833    .013629    .007592   2717.226   54.34453
                          1.0        0.0        1.0        0.0        0.0
 117000      .117  248978.279 -425412.79 176434.513 248978.279 -425412.79 176434.513 248978.279 -425412.79 176434.513        0.0
                          0.0        0.0 254001.521 -432966.07 178964.553 251960.441 -426312.46 174352.016 686967.596 -611930.63
                   -75036.968  674391.07  -601847.3 -72543.766 674391.071 -601847.31 -72543.766 150.593535 -168.83569 18.2421554
                   .280421E-3 -.45982E-3 .208527E-3        0.0   132.2308   1.772706   1.896508   7.833122    8.38017    .226309
                         420.    .053218    .022308     .35349    .246922    .899833    .013629    .007592   2717.226   54.34453
                          1.0        0.0        1.0        0.0        0.0
 117500     .1175  299715.962 -414380.77 114664.807 299715.962 -414380.77 114664.807 299715.962 -414380.77 114664.807        0.0
                          0.0        0.0 322008.793 -432277.24 110268.447 303108.891 -414054.45 110945.554 754286.034 -542545.69
                   -211740.35  714096.73 -529045.57 -185051.15  714096.73 -529045.58 -185051.15 13.9383492 -42.884677 28.9463274
                   .364829E-3  -.4917E-3 .126876E-3        0.0   132.2308   1.772706   1.896508   7.833122    8.38017    .226309
                         420.    .053218    .022308     .35349    .246922    .899833    .013629    .007592   2717.226   54.34453
                          1.0        0.0        1.0        0.0        0.0
 118000      .118  345457.876 -388748.56 43290.6857 345457.876 -388748.56 43290.6857 345457.876 -388748.56 43290.6858        0.0
                          0.0        0.0  329620.19 -372544.76  42924.566 346793.795 -391601.04 44807.2447 702164.946 -415469.32
                   -286695.62 734206.438 -432039.25 -302167.19 734206.438 -432039.25 -302167.19 -27.480018 -6.4718838 33.9519011
                   .418336E-3 -.43251E-3 .505373E-4        0.0   132.2308   1.772706   1.896508   7.833122    8.38017    .226309
                         420.    .053218    .022308     .35349    .246922    .899833    .013629    .007592   2717.226   54.34453
                          1.0        0.0        1.0        0.0        0.0
 118500     .1185  385057.321 -358562.73 -26494.586 385057.321 -358562.73 -26494.586 385057.321 -358562.74 -26494.586        0.0
                          0.0        0.0 348595.353 -327123.42 -21471.937 381939.485 -359505.12 -22434.368 675718.769 -305651.48
                   -370067.29 743620.056 -332068.15 -411551.91 743620.057 -332068.15 -411551.91 123.003633 -151.20552 28.2018875
                   .421509E-3 -.40321E-3 -.29275E-4        0.0   132.2308   1.772706   1.896508   7.833122    8.38017    .226309
                         420.    .053218    .022308     .35349    .246922    .899833    .013629    .007592   2717.226   54.34453
                          1.0        0.0        1.0        0.0        0.0
 119000      .119  403943.098  -314577.5 -89365.594 403943.098  -314577.5 -89365.594 403943.099  -314577.5 -89365.594        0.0
                          0.0        0.0 409267.212 -323464.45 -85802.761 407680.557 -318556.98 -89123.572 732731.663 -237661.69
                   -495069.97 718520.603 -225211.91 -493308.69 718520.604 -225211.91 -493308.69  197.82254 -217.99543 20.1728946
                   .486677E-3 -.32403E-3 -.10444E-3        0.0   132.2308   1.772706   1.896508   7.833122    8.38017    .226309
                         420.    .053218    .022308     .35349    .246922    .899833    .013629    .007592   2717.226   54.34453
                          1.0        0.0        1.0        0.0        0.0
 119500     .1195  417088.745 -265572.86 -151515.88 417088.745 -265572.86 -151515.88 417088.745 -265572.86 -151515.88        0.0
                          0.0        0.0 440150.711 -290558.67 -149592.04  423383.18 -269764.92 -153618.26  730709.38 -140966.63
                   -589742.75 682661.604 -114056.98 -568604.63 682661.605 -114056.98 -568604.63 75.9597544 -102.85942 26.8996619
                   .471988E-3 -.32082E-3 -.18023E-3        0.0   132.2308   1.772706   1.896508   7.833122    8.38017    .226309
                         420.    .053218    .022308     .35349    .246922    .899833    .013629    .007592   2717.226   54.34453
                          1.0        0.0        1.0        0.0        0.0
  % % % % % %   Suspended simulation;  plot data space exhausted;  SPY SPACE is required.   LIMBUF =  840000.
  % % % % % %   Suspended simulation;  plot data space exhausted;  SPY SPACE is required.   LIMBUF =  840000.
  +++  Time-sharing disabled.   Send  user-keyed interrupt to silence alarm.
   Current values.  INDBUF  INDBEG  LIMBUF  MFLUSH  NUMDCD  KCARD1  KCARD2
                    839994      50  840000    1007     230       1     231
Plot timespan now in memory (in sec) = 1.04985997E-01   1.19985000E-01
   ++++  Begin plot-data copy from memory to disk.   MFLUSH, INDBUF, N4, Tbeg,  Tend = 1008  839994       1  -1.00000E+00
1.00000E+19
 120000       .12  436700.314 -219399.83 -217300.48 436700.314 -219399.83 -217300.48 436700.314 -219399.83 -217300.48        0.0
                          0.0        0.0 419941.531 -205271.82 -214669.71 428660.705 -214330.35 -214330.35 625213.353 9397.88602
                   -634611.24 656100.144 -2099.3466  -654000.8 656100.144 -2099.3467  -654000.8 17.5907035 -32.753968 15.1632636
                   .508059E-3 -.25991E-3 -.24813E-3        0.0   132.2308   1.772706   1.896508   7.833122    8.38017    .226309
                         420.    .053218    .022308     .35349    .246922    .899833    .013629    .007592   2717.226   54.34453
                          1.0        0.0        1.0        0.0        0.0

Extrema of output variables follow.   Order and column positioning are the same as for the preceding time-step loop output.
Variable maxima :  448761.274 472719.691 442351.093 448761.274 472719.691 442351.093 448761.275 472719.691 529417.215        0.0
                          0.0        0.0 484642.993 511678.952 436921.716 428660.705 428660.703 428660.703 880559.562 834561.339
                   833489.806 794323.609 777318.354 782991.476  794323.61 777318.354 782991.476 596.427014 320.650732 646.553965
                     .5563E-3 .574201E-3 .542611E-3        0.0   132.2308   1.772706   1.896508   7.833122    8.38017    .226309
                         420.    .053218    .022308     .35349    .246922    .899833    .013629    .007592   2717.226   54.34453
                          1.0        0.0        1.0        0.0        0.0
Times of maxima :     .080507    .067098     .07318    .080507    .067098     .07318    .080507    .067098    .054126        0.0
                          0.0        0.0    .080908    .067264    .073611        0.0    .006667    .113333    .078784    .065062
                      .071458     .07895    .064859    .071548     .07895    .064859    .071548    .065638    .070935    .053522
                      .080486    .067079    .073255        0.0        0.0        0.0        0.0        0.0        0.0        0.0
                          0.0        0.0        0.0        0.0        0.0        0.0        0.0        0.0        0.0        0.0
                          0.0        0.0        0.0        0.0        0.0
Variable minima :  -457215.43 -463008.74  -447374.4 -457215.43 -463008.74  -447374.4 -457215.43 -463008.74  -447374.4        0.0
                          0.0        0.0 -514010.53 -498948.82 -440167.52 -428660.71  -428660.7  -428660.7 -888710.04 -835336.99
                   -832552.47 -804795.76 -787008.35 -798356.01 -804795.76 -877625.78 -798356.01 -319.62244  -512.4793 -147.31135
                   -.56066E-3 -.57149E-3 -.54938E-3        0.0   132.2308   1.772706   1.896508   7.833122    8.38017    .226309
                         420.    .053218    .022308     .35349    .246922    .899833    .013629    .007592   2717.226   54.34453
                          1.0        0.0        1.0        0.0        0.0
Times of minima :     .069581    .076926    .063645    .069581    .076926    .063645    .069581    .076926    .063645        0.0
                          0.0        0.0    .069414    .076568    .063214        .01    .016667    .103333    .067267    .074559
                      .061491    .069066    .074908    .061694    .069066    .054127    .061694    .053376    .063569    .068024
                      .069593    .076945    .063637        0.0        0.0        0.0        0.0        0.0        0.0        0.0
                          0.0        0.0        0.0        0.0        0.0        0.0        0.0        0.0        0.0        0.0
                          0.0        0.0        0.0        0.0        0.0

Blank card terminating all plot cards.            |BLANK PLOT

Memory storage figures for the preceding, now-completed data case.  -------------------------------  Present   Program
A value of  "-9999"  indicates that no figure is available.         28-Feb-22  19:10:46              figure     limit  (name)
     Size List 1.   Number of electric network nodes.                                                   37      6000  (LBUS)
     Size List 2.   Number of electric network branches.                                                39     10000  (LBRNCH)
     Size List 3.   Number of data values in R, L, C tables.                                            45    192000  (LDATA)
     Size List 4.   Number of electric network sources.                                                  3       900  (LEXCT)
     Size List 5.   Storage for [Y] and triangularized [Y].   No. times =    3     Factors =    66     189    420000  (LYMAT)
     Size List 6.   Number of entries in switch table.                  No. flops = 18                  21      1200  (LSWTCH)
     Size List 7.   Number of distinct ALPHANUMERIC data names plus program SPY variables.              25     15000  (LSIZE7)
     Size List 8.   History points of distributed lines.                                              1486    120000  (LPAST)
     Size List 9.   Number of nonlinear elements.                                                        0      2250  (LNONL)
     Size List 10.  Points of nonlinear characteristics.                                                 0      3800  (LCHAR)
     Size List 11.  Number of Type-59 S.M. outputs.                                                      0       720  (LSMOUT)
     Size List 12.  Total number of EMTP output variables.                                              55      2000  (LSIZ12)
     Size List 13.  Working space for batch/SPY plotting.                                            -9999     72800  (LSIZ13)
     Size List 14.  S.M./U.M. connections to TACS.                                                   -9999       510  (LBSTAC)
     Size List 15.  Character storage in bytes for MODELS.                                            3296     90000  (LCTACS)
     Size List 16.  Total number of Type-59 S.M. masses.                                                 0       800  (LIMASS)
     Size List 17.  Number of Type-59 Synchronous machines.                                              0        90  (LSYN)
     Size List 18.  Branch and switch power/energy outputs.                                              0       254  (MAXPE)
     Size List 19.  Total floating-point TACS table space.                                              23    120000  (LTACST)
     Size List 20.  Non-copied recursive convolution data.                                               0    100000  (LFSEM)
     Size List 21.  Total modal/phase [T] matrix storage.                                                9      3000  (LFD)
     Size List 22.  Total recursive convolution history.                                                 0     15000  (LHIST)
     Size List 23.  Giant vectors for renumbering, phasors;  also extrema accumulation.                  93    192000  (LSIZ23)
     Size List 24.  Peak phases of compensation for data.                                                0       120  (LCOMP)
     Size List 25.  Total table space for all U.M usage.                                             -9999     45000  (LSPCUM)
     Size List 26.  Square of max number of coupled phases.                                              9    260000  (LSIZ26)
     Size List 27.  Maximum number of MODELS top variables.                                             44       600  (LSIZ27)
     Size List 28.  MODELS.  Total work space is divided into INTEGER and REAL.  1st, REAL:           1780    210000  (LRTACS)
                             Second  and last,  statistics for INTEGER work space.                    6838         0  (LITACS)
     Size List 29.  RAM disk used by "TAPSAV" table saving (limit is "LABCOM" size LTLABL).          -9999       600  (LSIZ29)
     Size List 30.  Taku Noda frequency-dependent circuits.                                              0        19  (LSIZ30)
Timing figures characterizing central processor (CP) solution speed.  ----------------------------   CP sec  Wait sec  Real sec
     Data input time (through blank card ending branches) ....                                       0.000     0.000     0.000
     Node renumbering and phasor solution  ....                                                      0.031     0.000     0.031
     After phasor solution, but before time-step loop  ....                                          0.000     0.000     0.000
     Integration of equations (time-step loop)  ....                                                 1.297     0.000     1.297
     Plotting or STATISTICS termination overlays ....                                                0.000     0.000     0.000
                                                                                                    ---------------------------
                                                                                          Totals      1.328     0.000     1.328

