   ---   236   cards of disk file read into card cache cells  1   onward.
 Comment card is ignored.      |C   LBUS  LBRNCH   LDATA   LEXCT   LYMAT  LSWTCH
 Limit CIDEAL cards =   200    |CARDS        200 { Limit of CIDEAL will be 2 mor
 1st card (Lists  1-10).       |    6000   10000  192000     900  420000    120
 Comment card is ignored.      |C LSMOUT  LSIZ12  LSIZ13  LBSTAC  LCTACS  LIMASS
 2nd card (Lists 11-20).       |     720    2000   72800     510   90000     80
 Comment card is ignored.      |C    LFD   LHIST  LSIZ23   NCOMP  LSPCUM  LSIZ26
 3rd card (Lists 21-30).       |    3000   15000  192000     120   45000  26000
 4th card (Lists 31-32).       |     200     300     { Optional card for Lists
 Comment card is ignored.      |C  LWORK  LMARTI
 Supplemental offsets.         |  840000     742
 <===> Done with  "/"-card sorting by data class.    Remember that the source file appears different from interpreted input data.
Alternative Transients Program (ATP),  GNU Linux or DOS.  All rights reserved by Can/Am user group of Portland, Oregon, USA.
 Date (dd-mth-yy) and time of day (hh.mm.ss) = 28-Feb-22  19:47:00   Name of disk plot file is  draw6.3\bernal\energizacion3132.pl4
Consult the 860-page ATP Rule Book of the Can/Am EMTP User Group in Portland,  Oregon, USA.  Source code date is 12 August 2008.
Total size of LABCOM tables = 10913436 INTEGER words.  31 VARDIM  List Sizes follow:  6002  10K  192K  900  420K  1200  15K
  120K  2250  3800  720  2K  72800  510  90K  800  90  254  120K  100K  3K  15K  192K  120  45K  260K  600  210K  1100  60  200
--------------------------------------------------+--------------------------------------------------------------------------------
Descriptive interpretation of input data cards.   |  Input data card images are shown below, all 80 columns, character by character
                                                  0         1         2         3         4         5         6         7         8
                                                  012345678901234567890123456789012345678901234567890123456789012345678901234567890
--------------------------------------------------+--------------------------------------------------------------------------------
Comment card.   NUMDCD = 1.                       |C data:C:\ATP\ATPDRAW6.3\BERNAL\ENERGIZACION3132.ATP
Marker card preceding new EMTP data case.         |BEGIN NEW DATA CASE
Comment card.   NUMDCD = 3.                       |C --------------------------------------------------------
Comment card.   NUMDCD = 4.                       |C Generated by ATPDRAW  febrero, lunes 28, 2022
Comment card.   NUMDCD = 5.                       |C A Bonneville Power Administration program
Comment card.   NUMDCD = 6.                       |C by H. K. Høidalen at SEfAS/NTNU - NORWAY 1994-2016
Comment card.   NUMDCD = 7.                       |C --------------------------------------------------------
Comment card.   NUMDCD = 8.                       |C  dT  >< Tmax >< Xopt >< Copt ><Epsiln>
Misc. data.     1.000E-06   1.200E-01   5.000E+01 |   1.E-6     .12     50.
Misc. data.    500    1  0  1  1  0  0  0  0  0   |     500       1       0       1       1       0       0       0       0
  ///  Warning.  Nonzero XOPT or COPT differs from the power frequency of  6.00000000E+01  Hz.   Did the user really want this?
No TACS data,  but MODELS data begins (next).     |MODELS
      Another ordinary MODELS data card.          |OUTPUT
      Another ordinary MODELS data card.          |  AnVol
      Another ordinary MODELS data card.          |  LONG
      Another ordinary MODELS data card.          |  R0F
      Another ordinary MODELS data card.          |  R1F
      Another ordinary MODELS data card.          |  X0F
      Another ordinary MODELS data card.          |  X1F
      Another ordinary MODELS data card.          |  RDIVX
      Another ordinary MODELS data card.          |  RINSER
      Another ordinary MODELS data card.          |  CLOSE1
      Another ordinary MODELS data card.          |  RPpos
      Another ordinary MODELS data card.          |  RPcero
      Another ordinary MODELS data card.          |  LPpos
      Another ordinary MODELS data card.          |  LPcero
      Another ordinary MODELS data card.          |  CPpos
      Another ordinary MODELS data card.          |  CPcero
      Another ordinary MODELS data card.          |  Xp
      Another ordinary MODELS data card.          |  CR
      Another ordinary MODELS data card.          |  SIMET
      Another ordinary MODELS data card.          |  ENC1
      Another ordinary MODELS data card.          |  ENC2
      Another ordinary MODELS data card.          |  ENC1AS
      Another ordinary MODELS data card.          |  ENC2AS
      Another ordinary MODELS data card.          |MODEL DEFAULT
      Another ordinary MODELS data card.          |DATA AnVol,LONG,R0F,R1F,X0F,X1F,RDIVX,RINSER,CLOSE1,RPpos,RPcero,LPpos,LPcero
      Another ordinary MODELS data card.          |OUTPUT o1,o2,o3, o4, o5, o6, o7, o8, o9, o10, o11, o12, o13
      Another ordinary MODELS data card.          |VAR o1,o2,o3, o4, o5, o6, o7, o8, o9, o10, o11, o12, o13
      Another ordinary MODELS data card.          |INIT
      Another ordinary MODELS data card.          |  o1:=AnVol
      Another ordinary MODELS data card.          |  o2:=LONG
      Another ordinary MODELS data card.          |  o3:=R0F
      Another ordinary MODELS data card.          |  o4:=R1F
      Another ordinary MODELS data card.          |  o5:=X0F
      Another ordinary MODELS data card.          |  O6:=X1F
      Another ordinary MODELS data card.          |  o7:=RDIVX
      Another ordinary MODELS data card.          |  o8:=RINSER
      Another ordinary MODELS data card.          |  o9:=CLOSE1
      Another ordinary MODELS data card.          |  o10:=RPpos
      Another ordinary MODELS data card.          |  o11:=RPcero
      Another ordinary MODELS data card.          |  o12:=LPpos
      Another ordinary MODELS data card.          |  o13:=LPcero
      Another ordinary MODELS data card.          |
      Another ordinary MODELS data card.          |ENDINIT
      Another ordinary MODELS data card.          |EXEC
      Another ordinary MODELS data card.          |ENDEXEC
      Another ordinary MODELS data card.          |ENDMODEL
      Another ordinary MODELS data card.          |MODEL DEFAULT1
      Another ordinary MODELS data card.          |DATA CPpos,CPcero,Xp,CR,SIMET,ENC1,ENC2,ENC1AS,ENC2AS
      Another ordinary MODELS data card.          |OUTPUT o1, o2, o3, o4, o5, o6, o7, o8, o9
      Another ordinary MODELS data card.          |VAR o1, o2, o3, o4, o5, o6, o7, o8, o9
      Another ordinary MODELS data card.          |INIT
      Another ordinary MODELS data card.          |  o1:=CPpos
      Another ordinary MODELS data card.          |  o2:=CPcero
      Another ordinary MODELS data card.          |  o3:=Xp
      Another ordinary MODELS data card.          |  o4:=CR
      Another ordinary MODELS data card.          |  o5:=SIMET
      Another ordinary MODELS data card.          |  o6:=ENC1
      Another ordinary MODELS data card.          |  o7:=ENC2
      Another ordinary MODELS data card.          |  o8:=ENC1AS
      Another ordinary MODELS data card.          |  o9:=ENC2AS
      Another ordinary MODELS data card.          |
      Another ordinary MODELS data card.          |ENDINIT
      Another ordinary MODELS data card.          |EXEC
      Another ordinary MODELS data card.          |ENDEXEC
      Another ordinary MODELS data card.          |ENDMODEL
      Another ordinary MODELS data card.          |USE DEFAULT AS DEFAULT
      Another ordinary MODELS data card.          |DATA
      Another ordinary MODELS data card.          |  AnVol:=      0.0
      Another ordinary MODELS data card.          |  LONG:= 136.2378
      Another ordinary MODELS data card.          |  R0F:= 2.740557
      Another ordinary MODELS data card.          |  R1F:= 3.070986
      Another ordinary MODELS data card.          |  X0F:=  9.48763
      Another ordinary MODELS data card.          |  X1F:= 10.63155
      Another ordinary MODELS data card.          |  RDIVX:= 0.288856
      Another ordinary MODELS data card.          |  RINSER:=     420.
      Another ordinary MODELS data card.          |  CLOSE1:= 0.046225
      Another ordinary MODELS data card.          |  RPpos:= 0.020379
      Another ordinary MODELS data card.          |  RPcero:= 0.190804
      Another ordinary MODELS data card.          |  LPpos:=  0.40386
      Another ordinary MODELS data card.          |  LPcero:= 0.930442
      Another ordinary MODELS data card.          |OUTPUT
      Another ordinary MODELS data card.          |  AnVol:=o1
      Another ordinary MODELS data card.          |  LONG:=o2
      Another ordinary MODELS data card.          |  R0F:=o3
      Another ordinary MODELS data card.          |  R1F:=o4
      Another ordinary MODELS data card.          |  X0F:=o5
      Another ordinary MODELS data card.          |  X1F:=o6
      Another ordinary MODELS data card.          |  RDIVX:=o7
      Another ordinary MODELS data card.          |  RINSER:=o8
      Another ordinary MODELS data card.          |  CLOSE1:=o9
      Another ordinary MODELS data card.          |  RPpos:=o10
      Another ordinary MODELS data card.          |  RPcero:=o11
      Another ordinary MODELS data card.          |  LPpos:=o12
      Another ordinary MODELS data card.          |  LPcero:=o13
      Another ordinary MODELS data card.          |ENDUSE
      Another ordinary MODELS data card.          |USE DEFAULT1 AS DEF
      Another ordinary MODELS data card.          |DATA
      Another ordinary MODELS data card.          |  CPpos:= 0.015306
      Another ordinary MODELS data card.          |  CPcero:= 0.008471
      Another ordinary MODELS data card.          |  Xp:=   2348.4
      Another ordinary MODELS data card.          |  CR:=   46.968
      Another ordinary MODELS data card.          |  SIMET:=       1.
      Another ordinary MODELS data card.          |  ENC1:=      0.0
      Another ordinary MODELS data card.          |  ENC2:=       1.
      Another ordinary MODELS data card.          |  ENC1AS:=      0.0
      Another ordinary MODELS data card.          |  ENC2AS:=      0.0
      Another ordinary MODELS data card.          |OUTPUT
      Another ordinary MODELS data card.          |  CPpos:=o1
      Another ordinary MODELS data card.          |  CPcero:=o2
      Another ordinary MODELS data card.          |  Xp:=o3
      Another ordinary MODELS data card.          |  CR:=o4
      Another ordinary MODELS data card.          |  SIMET:=o5
      Another ordinary MODELS data card.          |  ENC1:=o6
      Another ordinary MODELS data card.          |  ENC2:=o7
      Another ordinary MODELS data card.          |  ENC1AS:=o8
      Another ordinary MODELS data card.          |  ENC2AS:=o9
      Another ordinary MODELS data card.          |ENDUSE
      Another ordinary MODELS data card.          |RECORD
      Another ordinary MODELS data card.          |  DEFAULT.o1 AS AnVOL
      Another ordinary MODELS data card.          |  DEFAULT.o2 AS LONG
      Another ordinary MODELS data card.          |  DEFAULT.o3 AS R0F
      Another ordinary MODELS data card.          |  DEFAULT.o4 AS R1F
      Another ordinary MODELS data card.          |  DEFAULT.o5 AS X0F
      Another ordinary MODELS data card.          |  DEFAULT.o6 AS X1F
      Another ordinary MODELS data card.          |  DEFAULT.o7 AS RDIVX
      Another ordinary MODELS data card.          |  DEFAULT.o8 AS RINSER
      Another ordinary MODELS data card.          |  DEFAULT.o9 AS CLOSE1
      Another ordinary MODELS data card.          |  DEFAULT.o10 AS RPpos
      Another ordinary MODELS data card.          |  DEFAULT.o11 AS RPcero
      Another ordinary MODELS data card.          |  DEFAULT.o12 AS LPpos
      Another ordinary MODELS data card.          |  DEFAULT.o13 AS LPcero
      Another ordinary MODELS data card.          |  DEF.o1 AS CPpos
      Another ordinary MODELS data card.          |  DEF.o2 AS CPcero
      Another ordinary MODELS data card.          |  DEF.o3 AS Xp
      Another ordinary MODELS data card.          |  DEF.o4 AS CR
      Another ordinary MODELS data card.          |  DEF.o5 AS SIMET
      Another ordinary MODELS data card.          |  DEF.o6 AS ENC1
      Another ordinary MODELS data card.          |  DEF.o7 AS ENC2
      Another ordinary MODELS data card.          |  DEF.o8 AS ENC1AS
      Another ordinary MODELS data card.          |  DEF.o9 AS ENC2AS
Termination of data for Laurent Dube`s MODELS.    |ENDMODELS
Comment card.   NUMDCD = 153.                     |C        1         2         3         4         5         6         7         8
Comment card.   NUMDCD = 154.                     |C 345678901234567890123456789012345678901234567890123456789012345678901234567890
Optional blank card follows last of MODELS data.  |BLANK MODELS
Comment card.   NUMDCD = 156.                     |C < n1 >< n2 ><ref1><ref2>< R  >< L  >< C  >
Comment card.   NUMDCD = 157.                     |C < n1 >< n2 ><ref1><ref2>< R  >< A  >< B  ><Leng><><>0
1st of coupled R-L.   2.74060E+00  3.02001E-02    |51IFUENASB1A              2.74069.4876299966
2nd coil. 3.071E+00 3.384E-02 0.000E+00 0.000E+00 |52IFUENBSB1B               3.07110.631553745
Zca, Zcc=-1.101E-01-1.214E-03 2.961E+00 3.263E-02 |53IFUENCSB1C
Series R-L-C.   1.000E+09  0.000E+00  0.000E+00   |  SB1A                      1.E9                                               0
Series R-L-C.   1.000E+09  0.000E+00  0.000E+00   |  SB1B                      1.E9                                               0
Series R-L-C.   1.000E+09  0.000E+00  0.000E+00   |  SB1C                      1.E9                                               0
Series R-L-C.   1.000E+09  0.000E+00  0.000E+00   |  RSNSHA                    1.E9                                               0
Series R-L-C.   1.000E+09  0.000E+00  0.000E+00   |  RSNSHB                    1.E9                                               0
Series R-L-C.   1.000E+09  0.000E+00  0.000E+00   |  RSNSHC                    1.E9                                               0
Series R-L-C.   2.348E+01  3.738E+00  0.000E+00   |  RSNNHA                  23.4841174.2                                         0
Series R-L-C.   2.348E+01  3.738E+00  0.000E+00   |  RSNNHB                  23.4841174.2                                         0
Series R-L-C.   2.348E+01  3.738E+00  0.000E+00   |  RSNNHC                  23.4841174.2                                         0
Series R-L-C.   1.000E+09  0.000E+00  0.000E+00   |  SE2A                      1.E9                                               0
Series R-L-C.   1.000E+09  0.000E+00  0.000E+00   |  SE2B                      1.E9                                               0
Series R-L-C.   1.000E+09  0.000E+00  0.000E+00   |  SE2C                      1.E9                                               0
Series R-L-C.   2.500E+02  0.000E+00  3.000E-10   |  X0001B                    250.       .0003                                   0
Series R-L-C.   2.500E+02  0.000E+00  3.000E-10   |  X0002B                    250.       .0003                                   0
Series R-L-C.   1.000E-06  0.000E+00  0.000E+00   |  X0001ALN1A               1.E-6                                               0
Series R-L-C.   1.000E-06  0.000E+00  0.000E+00   |  SB1A  X0002A             1.E-6                                               0
Series R-L-C.   1.000E-06  0.000E+00  0.000E+00   |  X0001BLN1B               1.E-6                                               0
Series R-L-C.   1.000E-06  0.000E+00  0.000E+00   |  SB1B  X0002B             1.E-6                                               0
Series R-L-C.   1.000E-06  0.000E+00  0.000E+00   |  X0001CLN1C               1.E-6                                               0
Series R-L-C.   1.000E-06  0.000E+00  0.000E+00   |  SB1C  X0002C             1.E-6                                               0
Series R-L-C.   4.200E+02  0.000E+00  0.000E+00   |  XX0005X0002A              420.                                               0
Series R-L-C.   4.200E+02  0.000E+00  0.000E+00   |  XX0003X0002B              420.                                               0
Series R-L-C.   4.200E+02  0.000E+00  0.000E+00   |  XX0004X0002C              420.                                               0
Series R-L-C.   2.500E+02  0.000E+00  3.000E-10   |  X0001A                    250.       .0003                                   0
Series R-L-C.   1.000E+06  0.000E+00  0.000E+00   |  X0001AX0002A              1.E6                                               0
Series R-L-C.   1.000E+06  0.000E+00  0.000E+00   |  X0001BX0002B              1.E6                                               0
Series R-L-C.   1.000E+06  0.000E+00  0.000E+00   |  X0001CX0002C              1.E6                                               0
Series R-L-C.   2.500E+02  0.000E+00  3.000E-10   |  X0002C                    250.       .0003                                   0
Series R-L-C.   2.500E+02  0.000E+00  3.000E-10   |  X0002A                    250.       .0003                                   0
Series R-L-C.   2.500E+02  0.000E+00  3.000E-10   |  X0001C                    250.       .0003                                   0
Series R-L-C.   1.250E+02  0.000E+00  6.000E-10   |  X0001AX0002A              125.       .0006                                   0
Series R-L-C.   1.250E+02  0.000E+00  6.000E-10   |  X0001BX0002B              125.       .0006                                   0
Series R-L-C.   1.250E+02  0.000E+00  6.000E-10   |  X0001CX0002C              125.       .0006                                   0
 1.908E-01 9.304E-01 8.470E-03 5.913E+02 6.824E-04|-1LN1A  VFF2A              .1908.93044.00847136.24 0 0                         0
 2.038E-02 4.039E-01 1.531E-02 2.898E+02 6.044E-04|-2LN1B  VFF2B             .02038.40386.01531136.24 0 0                         0
3rd or later transposed distributed phase.        |-3LN1C  VFF2C                                                                  0
Blank card ending branches.  IBR, NTOT = 39  31   |BLANK BRANCH
Comment card.   NUMDCD = 198.                     |C < n 1>< n 2>< Tclose ><Top/Tde ><   Ie   ><Vf/CLOP ><  type  >
Switch.  -1.00E+00  1.00E+01  0.00E+00  0.00E+00  |  LN1A  COMPA        -1.       10.                                             0
Switch.  -1.00E+00  1.00E+01  0.00E+00  0.00E+00  |  LN1B  COMPB        -1.       10.                                             0
Switch.  -1.00E+00  1.00E+01  0.00E+00  0.00E+00  |  LN1C  COMPC        -1.       10.                                             0
Switch.  -1.00E+00  1.00E+01  0.00E+00  0.00E+00  |  VFF2A RSNNHA       -1.       10.                                             0
Switch.  -1.00E+00  1.00E+01  0.00E+00  0.00E+00  |  VFF2B RSNNHB       -1.       10.                                             0
Switch.  -1.00E+00  1.00E+01  0.00E+00  0.00E+00  |  VFF2C RSNNHC       -1.       10.                                             0
Switch.   2.00E+00 -1.00E+00  0.00E+00  0.00E+00  |  VFF2A SE2A          2.       -1.                                             0
Switch.   2.00E+00 -1.00E+00  0.00E+00  0.00E+00  |  VFF2B SE2B          2.       -1.                                             0
Switch.   2.00E+00 -1.00E+00  0.00E+00  0.00E+00  |  VFF2C SE2C          2.       -1.                                             0
Switch.   4.62E-02  1.00E+03  0.00E+00  0.00E+00  |  X0001BXX0003.046225461      1.E3                                             0
Switch.   4.62E-02  1.00E+03  0.00E+00  0.00E+00  |  X0001CXX0004.046225461      1.E3                                             0
Switch.   5.37E-02  1.00E+03  0.00E+00  0.00E+00  |  XX0005X0002A.053725461      1.E3                                             0
Switch.   5.37E-02  1.00E+03  0.00E+00  0.00E+00  |  XX0003X0002B.053725461      1.E3                                             0
Switch.   5.37E-02  1.00E+03  0.00E+00  0.00E+00  |  XX0004X0002C.053725461      1.E3                                             0
Switch.   4.62E-02  1.00E+03  0.00E+00  0.00E+00  |  X0001AXX0005.046225461      1.E3                                             0
Permanently-closed switch used for metering.      |  VFUENAIFUENA                                        MEASURING                1
Permanently-closed switch used for metering.      |  VFUENBIFUENB                                        MEASURING                1
Permanently-closed switch used for metering.      |  VFUENCIFUENC                                        MEASURING                1
Permanently-closed switch used for metering.      |  COMPA RSNSHA                                        MEASURING                1
Permanently-closed switch used for metering.      |  COMPB RSNSHB                                        MEASURING                1
Permanently-closed switch used for metering.      |  COMPC RSNSHC                                        MEASURING                1
Blank card ending switches.   KSWTCH = 21.        |BLANK SWITCH
Comment card.   NUMDCD = 221.                     |C < n 1><>< Ampl.  >< Freq.  ><Phase/T0><   A1   ><   T1   >< TSTART >< TSTOP  >
Source.   4.29E+05  5.00E+01  0.00E+00 -1.00E+00  |14VFUENA  428660.705       50.                                     -1.      100.
Source.   4.29E+05  5.00E+01 -1.20E+02 -1.00E+00  |14VFUENB  428660.705       50.     -120.                           -1.      100.
Source.   4.29E+05  5.00E+01 -2.40E+02 -1.00E+00  |14VFUENC  428660.705       50.     -240.                           -1.      100.
Blank card ends electric sources.  KCONST = 3     |BLANK SOURCE
Pi-equivalent branches of distributed circuits are added to the table of List Size 3 between indices  40   and  45.

Sinusoidal steady-state phasor solution, branch by branch.   All flows are away from a bus,  and the real part,  magnitude,  or  "P"
is printed above the imaginary part,  the angle,  or  "Q".   The first solution frequency  =  5.00000000E+01  Hertz.
  Bus K                        Phasor  node  voltage              Phasor  branch  current               Power flow       Power loss
             Bus M         Rectangular            Polar          Rectangular            Polar            P  and  Q        P  and  Q

 IFUENA                    428660.705       428660.705      .42973263847465  .44585749768858      92104.747885026  .30524036861017
                                  0.0              0.0      .11882242075779       15.4562885      -25467.25132592        1.0567175

            SB1A      428660.64855802  428660.64858641      -.4297326384746  .44585749768858      -92104.44264466
                      -4.933629296076       -0.0006594      -.1188224207578     -164.5437115      25468.308043401

 IFUENB                  -214330.3525       428660.705      -.1119630843213  .44585749768795      92104.747884872  .30524036860862
                      -371231.0601341     -120.0000000      -.4315705921328     -104.5437115      -25467.25132598        1.0567175

            SB1B      -214334.5969273  428660.64858641      .11196308432133  .44585749768795       -92104.4426445
                      -371228.5444393     -120.0006594      .43157059213276       75.4562885      25468.308043456

 IFUENC                  -214330.3525       428660.705      -.3177695541634  .44585749768948      92104.747884397  .30524036861274
                      371231.06013415      120.0000000      .31274817136593      135.4562885      -25467.25132892        1.0567175

            SB1C      -214326.0516307  428660.64858641      .31776955416338  .44585749768948      -92104.44264403
                      371233.47806861      119.9993406      -.3127481713659      -44.5437115        25468.3080464

 SB1A                 428660.64855802  428660.64858641      .42866064856E-3  .42866064859E-3      91.874975823261  91.874975823261
                      -4.933629296076       -0.0006594      -.4933629296E-8       -0.0006594      .7125664669E-19        0.0000000

            TERRA                 0.0              0.0      -.4286606486E-3  .42866064859E-3                  0.0
                                  0.0              0.0      .49336292961E-8      179.9993406                  0.0

 SB1B                 -214334.5969273  428660.64858641      -.2143345969E-3  .42866064859E-3      91.874975823261  91.874975823261
                      -371228.5444393     -120.0006594      -.3712285444E-3     -120.0006594      -.464905892E-15        0.0000000

            TERRA                 0.0              0.0      .21433459693E-3  .42866064859E-3                  0.0
                                  0.0              0.0      .37122854444E-3       59.9993406                  0.0

 SB1C                 -214326.0516307  428660.64858641      -.2143260516E-3  .42866064859E-3      91.874975823261  91.874975823261
                      371233.47806861      119.9993406      .37123347807E-3      119.9993406      -.915933995E-15        0.0000000

            TERRA                 0.0              0.0      .21432605163E-3  .42866064859E-3                  0.0
                                  0.0              0.0      -.3712334781E-3      -60.0006594                  0.0

 RSNSHA               -209.2113419496  2422.0610305355      -.2092113419E-6  .24220610305E-5      .00293318981782  .00293318981782
                      2413.0085474441       94.9552356      .24130085474E-5       94.9552356      -.132613596E-19        0.0000000

            TERRA                 0.0              0.0      .20921134195E-6  .24220610305E-5                  0.0
                                  0.0              0.0      -.2413008547E-5      -85.0447644                  0.0

 RSNSHB               2194.3323726104  2422.0610305355      .21943323726E-5  .24220610305E-5      .00293318981782  .00293318981782
                      -1025.321936834      -25.0447644      -.1025321937E-5      -25.0447644      -.528336801E-19        0.0000000

            TERRA                 0.0              0.0      -.2194332373E-5  .24220610305E-5                  0.0
                                  0.0              0.0      .10253219368E-5      154.9552356                  0.0

 RSNSHC               -1985.121030661  2422.0610305355      -.1985121031E-5  .24220610305E-5      .00293318981782  .00293318981782
                       -1387.68661061     -145.0447644      -.1387686611E-5     -145.0447644      -.307049443E-20        0.0000000

            TERRA                 0.0              0.0      .19851210307E-5  .24220610305E-5                  0.0
                                  0.0              0.0      .13876866106E-5       34.9552356                  0.0

 RSNNHA               -204.5196349412  2354.6396681159      1.9934543312905   2.004913031352      47.199038683495  47.199038683495
                      2345.7407541304       94.9828840      .21404693958206        6.1286469      2359.9519341748     2359.9519342

            TERRA                 0.0              0.0       -1.99345433129   2.004913031352                  0.0
                                  0.0              0.0      -.2140469395821     -173.8713531                  0.0

 RSNNHB                 2133.73090124  2354.6396681159      -.8113570783649   2.004913031352      47.199038683495  47.199038683495
                      -995.7511776334      -25.0171160      -1.833405561973     -113.8713531      2359.9519341748     2359.9519342

            TERRA                 0.0              0.0      .81135707836487   2.004913031352                  0.0
                                  0.0              0.0      1.8334055619727       66.1286469                  0.0

 RSNNHC               -1929.211266299  2354.6396681159      -1.182097252926   2.004913031352      47.199038683495  47.199038683495
                      -1349.989576497     -145.0171160      1.6193586223906      126.1286469      2359.9519341747     2359.9519342

            TERRA                 0.0              0.0      1.1820972529256   2.004913031352                  0.0
                                  0.0              0.0      -1.619358622391      -53.8713531                  0.0

 X0001B               2194.3323724635  2422.0610305765      .96639188783E-4  .22827387414E-3       .6513620202E-5   .6513620202E-5
                      -1025.321937245      -25.0447644      .20680867682E-3       64.9538856      -.2764466273533       -0.2764466

            TERRA                 0.0              0.0      -.9663918878E-4  .22827387414E-3                  0.0
                                  0.0              0.0      -.2068086768E-3     -115.0461144                  0.0

 X0002B               -214334.5969272  428660.64858598      .03498699005646  .04040031432321      .20402317467667  .20402317467667
                      -371228.5444389     -120.0006594       -.020201384215      -30.0020094      -8659.012468028    -8659.0124680

            TERRA                 0.0              0.0      -.0349869900565  .04040031432321                  0.0
                                  0.0              0.0      .02020138421503      149.9979906                  0.0

 X0001A               -209.2113415201  2422.0610305765      .42955494450325  .43665846293042      49.706844634716  .95335306628E-7
                      2413.0085475225       94.9552356      .07844209903851       10.3488946       526.4653647442        0.0000000

            LN1A      -209.2113419496  2422.0610305355      -.4295549445033  .43665846293042      -49.70684453938
                      2413.0085474441       94.9552356      -.0784420990385     -169.6511054      -526.4653647442

 SB1A                 428660.64855802  428660.64858641      .42933970689774  .44547879047457      92020.225492347  .99225673011E-7
                      -4.933629296076       -0.0006594      .11882242567651       15.4697574      -25468.30812834              0.0

            X0002A    428660.64855759  428660.64858598      -.4293397068977  .44547879047457      -92020.22549225
                      -4.933629414898       -0.0006594      -.1188224256765     -164.5302426      25468.308128343

 X0001B               2194.3323724635  2422.0610305765      -.1468447408115  .43665840315078      49.706659676729  .95335280503E-7
                      -1025.321937245      -25.0447644      -.4112264377909     -109.6511248      526.46530949027              0.0

            LN1B      2194.3323726104  2422.0610305355       .1468447408115  .43665840315078      -49.70665958139
                      -1025.321936834      -25.0447644       .4112264377909       70.3488752      -526.4653094903

 SB1B                 -214334.5969273  428660.64858641      -.1117587089539  .44544974737659      92014.189672972  .99212741134E-7
                      -371228.5444393     -120.0006594       -.431202352047     -104.5301604      -25466.77973337        0.0000000

            X0002B    -214334.5969272  428660.64858598      .11175870895386  .44544974737659      -92014.18967287
                      -371228.5444389     -120.0006594      .43120235204697       75.4698396      25466.779733369

 X0001C               -1985.121030943  2422.0610305765      -.2827100615832  .43665838635264      49.706501194001  .95335273176E-7
                      -1387.686610277     -145.0447644      .33278456612607      130.3488582      526.46530401998        0.0000000

            LN1C      -1985.121030661  2422.0610305355       .2827100615832  .43665838635264      -49.70650109867
                       -1387.68661061     -145.0447644      -.3327845661261      -49.6511418        -526.46530402

 SB1C                 -214326.0516307  428660.64858641      -.3175518941134  .44545851426219      92016.586901897  .99216649119E-7
                      371233.47806861      119.9993406      .31240051612258      135.4685205      -25465.16248553              0.0

            X0002C    -214326.0516304  428660.64858598      .31755189411342  .44545851426219       -92016.5869018
                      371233.47806829      119.9993406      -.3124005161226      -44.5314795      25465.162485526

 XX0005               428660.64855759  428660.64858598                  0.0              0.0                  0.0              0.0
                      -4.933629414898       -0.0006594                  0.0              0.0                  0.0              0.0

            X0002A    428660.64855759  428660.64858598                  0.0              0.0                  0.0
                      -4.933629414898       -0.0006594                  0.0              0.0                  0.0

 XX0003               -214334.5969272  428660.64858598                  0.0              0.0                  0.0              0.0
                      -371228.5444389     -120.0006594                  0.0              0.0                  0.0              0.0

            X0002B    -214334.5969272  428660.64858598                  0.0              0.0                  0.0
                      -371228.5444389     -120.0006594                  0.0              0.0                  0.0

 XX0004               -214326.0516304  428660.64858598                  0.0              0.0                  0.0              0.0
                      371233.47806829      119.9993406                  0.0              0.0                  0.0              0.0

            X0002C    -214326.0516304  428660.64858598                  0.0              0.0                  0.0
                      371233.47806829      119.9993406                  0.0              0.0                  0.0

 X0001A               -209.2113415201  2422.0610305765      -.2274211622E-3  .22827387414E-3       .6513620202E-5   .6513620202E-5
                      2413.0085475225       94.9552356      -.1971234592E-4     -175.0461144      -.2764466273533       -0.2764466

            TERRA                 0.0              0.0      .22742116224E-3  .22827387414E-3                  0.0
                                  0.0              0.0      .19712345922E-4        4.9538856                  0.0

 X0001A               -209.2113415201  2422.0610305765      -.4288698598991  .42887667595039      47.779476933691  91967.601587127
                      2413.0085475225       94.9552356      .00241794217694      179.6769733      -517.1803883924        0.0000000

            X0002A    428660.64855759  428660.64858598      .42886985989911  .42887667595039      91919.822110193
                      -4.933629414898       -0.0006594      -.0024179421769       -0.3230267      517.18038839239

 X0001B               2194.3323724635  2422.0610305765      .21652892929966  .42887667595039      47.779476933689  91967.601587127
                      -1025.321937245      -25.0447644      .37020322250163       59.6769733      -517.1803883924        0.0000000

            X0002B    -214334.5969272  428660.64858598      -.2165289292997  .42887667595039      91919.822110193
                      -371228.5444389     -120.0006594      -.3702032225016     -120.3230267      517.18038839239

 X0001C               -1985.121030943  2422.0610305765      .21234093059945  .42887667595039      47.779476933689  91967.601587127
                      -1387.686610277     -145.0447644      -.3726211646786      -60.3230267      -517.1803883924        0.0000000

            X0002C    -214326.0516304  428660.64858598      -.2123409305994  .42887667595039      91919.822110193
                      371233.47806829      119.9993406      .37262116467857      119.6769733      517.18038839239

 X0002C               -214326.0516304  428660.64858598      -.0349884069501  .04040031432321      .20402317467626  .20402317467626
                      371233.47806829      119.9993406      -.0201989300833     -150.0020094      -8659.012468028    -8659.0124680

            TERRA                 0.0              0.0      .03498840695006  .04040031432321                  0.0
                                  0.0              0.0      .02019893008333       29.9979906                  0.0

 X0002A               428660.64855759  428660.64858598      .14168935973E-5  .04040031432321      .20402317467675  .20402317467675
                      -4.933629414898       -0.0006594      .04040031429836       89.9979906      -8659.012468028    -8659.0124680

            TERRA                 0.0              0.0      -.1416893597E-5  .04040031432321                  0.0
                                  0.0              0.0      -.0404003142984      -90.0020094                  0.0

 X0001C               -1985.121030943  2422.0610305765      .13078197346E-3  .22827387414E-3       .6513620202E-5   .6513620202E-5
                      -1387.686610277     -145.0447644      -.1870963309E-3      -55.0461144      -.2764466273533       -0.2764466

            TERRA                 0.0              0.0      -.1307819735E-3  .22827387414E-3                  0.0
                                  0.0              0.0       .1870963309E-3      124.9538856                  0.0

 X0001A               -209.2113415201  2422.0610305765      -.4576761117E-3  .08084134884526      -97.48599426709  .40845773019511
                      2413.0085475225       94.9552356      -.0808400532886      -90.3243767       -9.00851618326   -17335.4844812

            X0002A    428660.64855759  428660.64858598      .45767611167E-3  .08084134884526      97.894451997288
                      -4.933629414898       -0.0006594      .08084005328857       89.6756233      -17326.47596506

 X0001B               2194.3323724635  2422.0610305765      -.0697807017354  .08084134884526      -97.48599426709  .40845773019486
                      -1025.321937245      -25.0447644       .0408163857837      149.6756233       -9.00851618326   -17335.4844812

            X0002B    -214334.5969272  428660.64858598      .06978070173535  .08084134884526      97.894451997288
                      -371228.5444389     -120.0006594      -.0408163857837      -30.3243767      -17326.47596506

 X0001C               -1985.121030943  2422.0610305765      .07023837784702  .08084134884526      -97.48599426709  .40845773019544
                      -1387.686610277     -145.0447644      .04002366750487       29.6756233       -9.00851618326   -17335.4844812

            X0002C    -214326.0516304  428660.64858598       -.070238377847  .08084134884526      97.894451997288
                      371233.47806829      119.9993406      -.0400236675049     -150.3243767      -17326.47596506

 LN1A                 -209.2113419496  2422.0610305355      .42955518101071  .43665818231158      49.703372470044  2.5043337865497
                      2413.0085474441       94.9552356      .07843924175123       10.3485202      526.46535120301    -1833.4865830

            VFF2A     -204.5196349412  2354.6396681159       -1.99345433129   2.004913031352      -47.19903868349
                      2345.7407541304       94.9828840      -.2140469395821     -173.8713531      -2359.951934175

 LN1B                 2194.3323726104  2422.0610305355      -.1468472144952  .43665818231158      49.703372470047  2.5043337865512
                      -1025.321936834      -25.0447644      -.4112253199581     -109.6514798      526.46535120301    -1833.4865830

            VFF2B       2133.73090124  2354.6396681159      .81135707836487   2.004913031352       -47.1990386835
                      -995.7511776334      -25.0171160      1.8334055619727       66.1286469      -2359.951934175

 LN1C                 -1985.121030661  2422.0610305355      -.2827079665155  .43665818231158      49.703372470048  2.5043337865504
                       -1387.68661061     -145.0447644      .33278607820688      130.3485202        526.465351203    -1833.4865830

            VFF2C     -1929.211266299  2354.6396681159      1.1820972529256   2.004913031352       -47.1990386835
                      -1349.989576497     -145.0171160      -1.619358622391      -53.8713531      -2359.951934175
     Total network loss  P-loss  by summing injections =   2.763217951199E+05

Output for steady-state phasor switch currents.
      Node-K    Node-M            I-real            I-imag            I-magn          Degrees        Power            Reactive
      LN1A      COMPA        -1.93947560E-07    2.10449980E-06    2.11341787E-06      95.2654    2.55937602E-03   -1.38559461E-05
      LN1B      COMPB         3.05784335E-06   -1.04690921E-06    3.23209295E-06     -18.8996    3.89167182E-03   -4.19003544E-04
      LN1C      COMPC        -2.05086854E-06   -1.19872790E-06    2.37550212E-06    -149.6938    2.86734046E-03    2.33171425E-04
      VFF2A     RSNNHA        1.99345433E+00    2.14046940E-01    2.00491303E+00       6.1286    4.71990387E+01    2.35995193E+03
      VFF2B     RSNNHB       -8.11357078E-01   -1.83340556E+00    2.00491303E+00    -113.8714    4.71990387E+01    2.35995193E+03
      VFF2C     RSNNHC       -1.18209725E+00    1.61935862E+00    2.00491303E+00     126.1286    4.71990387E+01    2.35995193E+03
      VFF2A     SE2A              Open              Open              Open             Open          Open              Open
      VFF2B     SE2B              Open              Open              Open             Open          Open              Open
      VFF2C     SE2C              Open              Open              Open             Open          Open              Open
      X0001B    XX0003            Open              Open              Open             Open          Open              Open
      X0001C    XX0004            Open              Open              Open             Open          Open              Open
      XX0005    X0002A            Open              Open              Open             Open          Open              Open
      XX0003    X0002B            Open              Open              Open             Open          Open              Open
      XX0004    X0002C            Open              Open              Open             Open          Open              Open
      X0001A    XX0005            Open              Open              Open             Open          Open              Open
      VFUENA    IFUENA        4.29732638E-01    1.18822421E-01    4.45857498E-01      15.4563    9.21047479E+04   -2.54672513E+04
      VFUENB    IFUENB       -1.11963084E-01   -4.31570592E-01    4.45857498E-01    -104.5437    9.21047479E+04   -2.54672513E+04
      VFUENC    IFUENC       -3.17769554E-01    3.12748171E-01    4.45857498E-01     135.4563    9.21047479E+04   -2.54672513E+04
      COMPA     RSNSHA       -1.93947560E-07    2.10449980E-06    2.11341787E-06      95.2654    2.55937602E-03   -1.38559461E-05
      COMPB     RSNSHB        3.05784335E-06   -1.04690921E-06    3.23209295E-06     -18.8996    3.89167182E-03   -4.19003544E-04
      COMPC     RSNSHC       -2.05086854E-06   -1.19872790E-06    2.37550212E-06    -149.6938    2.86734046E-03    2.33171425E-04

Solution at nodes with known voltage.   Nodes that are shorted together by switches are shown as a group of names, with the printed
result applying to the composite group.   The entry "MVA" is  SQRT( P**2 + Q**2 )  in units of power,  while  "P.F."  is the
associated power factor.
              Node                Source  node  voltage             Injected  source  current              Injected  source  power
              name         Rectangular            Polar          Rectangular            Polar            P  and  Q    MVA and P.F.

               VFUENA
              IFUENA       428660.705       428660.705      .42973263847531  .44585749769039      92104.747885167  95560.794644749
                                  0.0              0.0      .11882242076219       15.4562885      -25467.25132686        0.9638341

               VFUENB
              IFUENB     -214330.3525       428660.705      -.1119630843251  .44585749768854       92104.74788521  95560.794644353
                      -371231.0601341     -120.0000000      -.4315705921324     -104.5437115      -25467.25132523        0.9638341

               VFUENC
              IFUENC     -214330.3525       428660.705      -.3177695541632  .44585749768922      92104.747884341  95560.794644499
                      371231.06013415      120.0000000      .31274817136571      135.4562885      -25467.25132891        0.9638341

  +++  Node  "COMPC "  has no connected linear branches.  Add (to ground) the conductance  G = 1.00000000E-18  mhos.
  +++  Node  "COMPB "  has no connected linear branches.  Add (to ground) the conductance  G = 1.00000000E-18  mhos.
  +++  Node  "COMPA "  has no connected linear branches.  Add (to ground) the conductance  G = 1.00000000E-18  mhos.
Card of names for time-step loop output.          |  LN1A  LN1B  LN1C  COMPA COMPB COMPC SB1A  SB1B  SB1C  SE2A  SE2B  SE2C  VFF2A
Card of names for time-step loop output.          |  VFF2B VFF2C IFUENAIFUENBIFUENC
Card of names for time-step loop output.          |-5VFF2A VFF2B VFF2B VFF2C VFF2C VFF2A LN1A  LN1B  LN1B  LN1C  LN1C  LN1A
Card of names for time-step loop output.          |-5SB1A  SB1B  SB1B  SB1C  SB1C  SB1A
Blank card ending requests for output variables.  |BLANK OUTPUT

Column headings for the  55   EMTP output variables follow.  These are divided among the 5 possible classes as follows ....
  First  27     output variables are electric-network voltage differences (upper voltage minus lower voltage);
  Next   6     output variables are branch currents (flowing from the upper node to the lower node);
  Next   22     output variables belong to MODELS (with "MODELS" an internally-added upper name of pair).
   Step      Time      LN1A       LN1B       LN1C       COMPA      COMPB      COMPC      SB1A       SB1B       SB1C       SE2A
 

                       SE2B       SE2C       VFF2A      VFF2B      VFF2C      IFUENA     IFUENB     IFUENC     VFF2A      VFF2B
                                                                                                               VFF2B      VFF2C

                       VFF2C      LN1A       LN1B       LN1C       SB1A       SB1B       SB1C       VFUENA     VFUENB     VFUENC
                       VFF2A      LN1B       LN1C       LN1A       SB1B       SB1C       SB1A       IFUENA     IFUENB     IFUENC

                       COMPA      COMPB      COMPC      MODELS     MODELS     MODELS     MODELS     MODELS     MODELS     MODELS
                       RSNSHA     RSNSHB     RSNSHC     ANVOL      LONG       R0F        R1F        X0F        X1F        RDIVX

                       MODELS     MODELS     MODELS     MODELS     MODELS     MODELS     MODELS     MODELS     MODELS     MODELS
                       RINSER     CLOSE1     RPPOS      RPCERO     LPPOS      LPCERO     CPPOS      CPCERO     XP         CR

                       MODELS     MODELS     MODELS     MODELS     MODELS
                       SIMET      ENC1       ENC2       ENC1AS     ENC2AS
 ***      Phasor I(0) = -1.9394756E-07                     Switch  "LN1A  "  to  "COMPA "  closed in the steady-state.
 ***      Phasor I(0) =  3.0578433E-06                     Switch  "LN1B  "  to  "COMPB "  closed in the steady-state.
 ***      Phasor I(0) = -2.0508685E-06                     Switch  "LN1C  "  to  "COMPC "  closed in the steady-state.
 ***      Phasor I(0) =  1.9934543E+00                     Switch  "VFF2A "  to  "RSNNHA"  closed in the steady-state.
 ***      Phasor I(0) = -8.1135708E-01                     Switch  "VFF2B "  to  "RSNNHB"  closed in the steady-state.
 ***      Phasor I(0) = -1.1820973E+00                     Switch  "VFF2C "  to  "RSNNHC"  closed in the steady-state.
 ***      Phasor I(0) =  4.2973264E-01                     Switch  "VFUENA"  to  "IFUENA"  closed in the steady-state.
 ***      Phasor I(0) = -1.1196308E-01                     Switch  "VFUENB"  to  "IFUENB"  closed in the steady-state.
 ***      Phasor I(0) = -3.1776955E-01                     Switch  "VFUENC"  to  "IFUENC"  closed in the steady-state.
 ***      Phasor I(0) = -1.9394756E-07                     Switch  "COMPA "  to  "RSNSHA"  closed in the steady-state.
 ***      Phasor I(0) =  3.0578433E-06                     Switch  "COMPB "  to  "RSNSHB"  closed in the steady-state.
 ***      Phasor I(0) = -2.0508685E-06                     Switch  "COMPC "  to  "RSNSHC"  closed in the steady-state.
      0       0.0  -209.21134 2194.33237  -1985.121 -209.21134 2194.33237  -1985.121 428660.649  -214334.6 -214326.05        0.0
                          0.0        0.0 -204.51963  2133.7309 -1929.2113 428660.705 -214330.35 -214330.35 -2338.2505 4062.94217
                   -1724.6916 -2403.5437  4179.4534 -1775.9097 642995.245 -8.5452966  -642986.7 .429732638 -.11196308 -.31776955
                   -.19395E-6 .305784E-5 -.20509E-5        0.0   136.2378   2.740557   3.070986    9.48763   10.63155    .288856
                         420.    .046225    .020379    .190804     .40386    .930442    .015306    .008471     2348.4     46.968
                          1.0        0.0        1.0        0.0        0.0
    500     .5E-3  -584.11323 2327.71217 -1743.5989 -584.11323 2327.71217 -1743.5989 423383.894 -153622.84 -269761.05        0.0
                          0.0        0.0 -568.95636 2263.23091 -1694.2746  423383.18 -153618.26 -269764.92 -2832.1873 3957.50547
                   -1125.3182 -2911.8254 4071.31112 -1159.4857 577006.736 116138.209 -693144.95 .405858368 -.04307376  -.3627846
                   -.65752E-6 .233695E-5 -.19067E-5        0.0   136.2378   2.740557   3.070986    9.48763   10.63155    .288856
                         420.    .046225    .020379    .190804     .40386    .930442    .015306    .008471     2348.4     46.968
                          1.0        0.0        1.0        0.0        0.0
   1000     .1E-2  -944.63247 2403.77601 -1459.1435 -944.63247 2403.77601 -1459.1435 407682.028 -89128.386 -318553.64        0.0
                          0.0        0.0 -919.38327 2337.00265 -1417.6194 407680.557 -89123.572 -318556.98 -3256.3859 3754.62202
                   -498.23611 -3348.4085 3862.91955 -514.51107 496810.415 229425.256 -726235.67 .371985675 .026878599 -.39886427
                   -.98077E-6 .236017E-5  -.1493E-5        0.0   136.2378   2.740557   3.070986    9.48763   10.63155    .288856
                         420.    .046225    .020379    .190804     .40386    .930442    .015306    .008471     2348.4     46.968
                          1.0        0.0        1.0        0.0        0.0
   1500     .0015  -1281.8915 2420.65088 -1138.7594 -1281.8915 2420.65088 -1138.7594 381941.681 -22439.295 -359502.39        0.0
                          0.0        0.0 -1247.1724 2353.22976 -1106.0574 381939.485 -22434.368 -359505.12 -3600.4021 3459.28715
                   141.114971 -3702.5424 3559.41026  143.13212 404380.977 337063.091 -741444.07 .328952996 .096169351 -.42512235
                   -.12583E-5 .248807E-5 -.12296E-5        0.0   136.2378   2.740557   3.070986    9.48763   10.63155    .288856
                         420.    .046225    .020379    .190804     .40386    .930442    .015306    .008471     2348.4     46.968
                          1.0        0.0        1.0        0.0        0.0
   2000      .002  -1587.5864 2377.92135 -790.33494 -1587.5864 2377.92135 -790.33494 346796.646 44802.3341 -391598.98        0.0
                          0.0        0.0 -1544.2516 2311.51245 -767.26087 346793.795 44807.2448 -391601.04  -3855.764 3078.77332
                   776.990713 -3965.5078 3168.25629 797.251466 301994.312 436401.314 -738395.63 .277822123 .163091234 -.44091336
                   -.17405E-5  .23701E-5 -.85728E-6        0.0   136.2378   2.740557   3.070986    9.48763   10.63155    .288856
                         420.    .046225    .020379    .190804     .40386    .930442    .015306    .008471     2348.4     46.968
                          1.0        0.0        1.0        0.0        0.0
   2500     .0025  -1854.1891 2276.63933 -422.45019 -1854.1891 2276.63933 -422.45019 303112.345 110940.772 -414053.12        0.0
                          0.0        0.0 -1803.3065 2212.87808  -409.5716 303108.891 110945.554 -414054.45 -4016.1846 2622.44968
                   1393.73488 -4130.8285 2699.08952 1431.73895 192171.573 524993.888 -717165.46 .219849287   .2259978 -.44584709
                   -.18673E-5 .244996E-5 -.46886E-6        0.0   136.2378   2.740557   3.070986    9.48763   10.63155    .288856
                         420.    .046225    .020379    .190804     .40386    .930442    .015306    .008471     2348.4     46.968
                          1.0        0.0        1.0        0.0        0.0
   3000      .003  -2075.1364 2119.29921  -44.16285 -2075.1364 2119.29921  -44.16285 251964.399 174347.486 -426311.89        0.0
                          0.0        0.0 -2017.9578 2059.75523 -41.797461 251960.441 174352.016 -426312.46  -4077.713 2101.55269
                    1976.1603 -4194.4356 2163.46206 2030.97351 77616.9136 600659.371 -678276.28  .15646349 .283339322 -.43980281
                   -.21466E-5 .202452E-5 -.48563E-7        0.0   136.2378   2.740557   3.070986    9.48763   10.63155    .288856
                         420.    .046225    .020379    .190804     .40386    .930442    .015306    .008471     2348.4     46.968
                          1.0        0.0        1.0        0.0        0.0
   3500     .0035  -2244.9864 1909.77466 335.211712 -2244.9864 1909.77466 335.211712 194612.257 233461.185 -428073.44        0.0
                          0.0        0.0 -2182.9204 1855.91451 327.005915 194607.888 233465.353 -428073.24 -4038.8349  1528.9086
                   2509.92634  -4154.761 1574.56295 2580.19809 -38848.928 661534.626  -622685.7 .089224566 .333704328 -.42292889
                    -.2411E-5 .209992E-5 .367727E-6        0.0   136.2378   2.740557   3.070986    9.48763   10.63155    .288856
                         420.    .046225    .020379    .190804     .40386    .930442    .015306    .008471     2348.4     46.968
                          1.0        0.0        1.0        0.0        0.0
   4000      .004  -2359.5575 1653.22528 706.332245 -2359.5575 1653.22528 706.332245 132468.118 286826.293 -419294.41        0.0
                          0.0        0.0 -2294.1322 1606.37486 687.757317 132463.443 286829.997 -419293.44  -3900.507 918.617539
                   2981.88949 -4012.7828  946.89303 3065.88977 -154358.18 706120.704 -551762.53 .019789254 .375852116 -.39564137
                   -.25358E-5  .16571E-5 .765081E-6        0.0   136.2378   2.740557   3.070986    9.48763   10.63155    .288856
                         420.    .046225    .020379    .190804     .40386    .930442    .015306    .008471     2348.4     46.968
                          1.0        0.0        1.0        0.0        0.0
   4500     .0045  -2416.0284 1355.96785 1060.06056 -2416.0284 1355.96785 1060.06056 67062.1715 333128.787 -400190.96        0.0
                          0.0        0.0 -2348.8549 1317.28106 1031.57383 67057.3081 333131.936 -400189.24 -3666.1359 285.707228
                   3380.42872 -3771.9963 295.907286 3476.08898 -266066.62 733319.746 -467253.13 -.05013413 .408745576 -.35861145
                   -.25888E-5 .133688E-5 .102457E-5        0.0   136.2378   2.740557   3.070986    9.48763   10.63155    .288856
                         420.    .046225    .020379    .190804     .40386    .930442    .015306    .008471     2348.4     46.968
                          1.0        0.0        1.0        0.0        0.0
   5000      .005  -2413.0087 1025.32212 1387.68662 -2413.0087 1025.32212 1387.68662 4.93168785 371228.545 -371233.48        0.0
                          0.0        0.0 -2345.7409 995.751307 1349.98964 -.45661E-7  371231.06 -371231.06 -3341.4922 -354.23833
                   3695.73058 -3438.3309  -362.3645 3800.69537 -371223.61 742462.022 -371238.41 -.11882255 .431574114 -.31275157
                   -.26678E-5 .103034E-5 .141037E-5        0.0   136.2378   2.740557   3.070986    9.48763   10.63155    .288856
                         420.    .046225    .020379    .190804     .40386    .930442    .015306    .008471     2348.4     46.968
                          1.0        0.0        1.0        0.0        0.0
   5500     .0055  -2350.5727 669.429431 1681.14331 -2350.5727 669.429431 1681.14331 -67052.427 400187.424   -333135.        0.0
                          0.0        0.0 -2284.8669 649.702859 1635.16402 -67057.308 400189.244 -333131.94 -2934.5697 -985.46116
                    3920.0309 -3020.0022 -1011.7139 4031.71605 -467239.85  733322.42 -266082.57  -.1845853 .443775937 -.25919064
                   -.23782E-5 .689301E-6 .180257E-5        0.0   136.2378   2.740557   3.070986    9.48763   10.63155    .288856
                         420.    .046225    .020379    .190804     .40386    .930442    .015306    .008471     2348.4     46.968
                          1.0        0.0        1.0        0.0        0.0
   6000      .006  -2230.2577 297.053155 1933.20458 -2230.2577 297.053155 1933.20458 -132458.73 419292.359 -286833.63        0.0
                          0.0        0.0 -2167.7322 287.656664 1880.07552 -132463.44  419293.44   -286830. -2455.3889 -1592.4189
                   4047.80771 -2527.3109 -1636.1514 4163.46232 -551751.09 706125.985 -154374.89 -.24580288 .445050485 -.19924761
                   -.23574E-5 .283772E-6 .201701E-5        0.0   136.2378   2.740557   3.070986    9.48763   10.63155    .288856
                         420.    .046225    .020379    .190804     .40386    .930442    .015306    .008471     2348.4     46.968
                          1.0        0.0        1.0        0.0        0.0
   6500     .0065  -2055.0266 -82.637424 2137.66399 -2055.0266 -82.637424 2137.66399 -194603.47 428072.926 -233469.46        0.0
                          0.0        0.0 -1997.2204 -81.472745 2078.69318 -194607.89  428073.24 -233465.35 -1915.7477 -2160.1659
                   4075.91362 -1972.3891 -2220.3014 4192.69055 -622676.39 661542.386 -38865.992 -.30096816 .435366509 -.13439835
                   -.21596E-5 -.91535E-7  .21091E-5        0.0   136.2378   2.740557   3.070986    9.48763   10.63155    .288856
                         420.    .046225    .020379    .190804     .40386    .930442    .015306    .008471     2348.4     46.968
                          1.0        0.0        1.0        0.0        0.0
   7000      .007  -1829.1937 -460.29335 2289.48702 -1829.1937 -460.29335 2289.48702 -251956.42 426312.916  -174356.5        0.0
                          0.0        0.0 -1777.5306 -448.59591 2226.12649 -251960.44 426312.457 -174352.02 -1328.9347 -2674.7224
                   4003.65706 -1368.9003 -2749.7804 4118.68068 -678269.33 600669.417 77599.9153 -.34872236  .41496224 -.06623988
                   -.18264E-5 -.48684E-6 .259723E-5        0.0   136.2378   2.740557   3.070986    9.48763   10.63155    .288856
                         420.    .046225    .020379    .190804     .40386    .930442    .015306    .008471     2348.4     46.968
                          1.0        0.0        1.0        0.0        0.0
   7500     .0075  -1558.3198 -826.61531 2384.93512 -1558.3198 -826.61531 2384.93512 -303105.36 414055.668 -110950.31        0.0
                          0.0        0.0  -1514.072 -804.67323 2318.74526 -303108.89 414054.446 -110945.55 -709.39881 -3123.4185
                    3832.8173  -731.7045 -3211.5504 3943.25494 -717161.03 525005.973 192155.058 -.38789006 .384340323 .003549736
                   -.16171E-5 -.81193E-6 .242912E-5        0.0   136.2378   2.740557   3.070986    9.48763   10.63155    .288856
                         420.    .046225    .020379    .190804     .40386    .930442    .015306    .008471     2348.4     46.968
                          1.0        0.0        1.0        0.0        0.0
   8000      .008  -1249.0753 -1172.5832 2421.65849 -1249.0753 -1172.5832 2421.65849 -346790.85 391602.995 -44812.146        0.0
                          0.0        0.0 -1213.3316 -1140.9369 2354.26855  -346793.8  391601.04 -44807.245 -72.394686 -3495.2055
                   3567.60016 -76.492171 -3594.2417 3670.73383 -738393.84 436415.141 301978.704 -.41750646 .344254595 .073251869
                   -.12877E-5 -.12999E-5 .258745E-5        0.0   136.2378   2.740557   3.070986    9.48763   10.63155    .288856
                         420.    .046225    .020379    .190804     .40386    .930442    .015306    .008471     2348.4     46.968
                          1.0        0.0        1.0        0.0        0.0
   8500     .0085  -909.07466 -1489.6779 2398.75259 -909.07466 -1489.6779 2398.75259 -381937.19 359507.756 22429.4379        0.0
                          0.0        0.0 -882.71568 -1449.1067 2331.82239 -381939.48 359505.117 22434.3679 566.391027 -3780.9291
                   3214.53808  580.60327 -3888.4305 3307.82726 -741444.95 337078.319 404366.632 -.43684212 .295692002 .141150121
                   -.99652E-6 -.15223E-5 .229152E-5        0.0   136.2378   2.740557   3.070986    9.48763   10.63155    .288856
                         420.    .046225    .020379    .190804     .40386    .930442    .015306    .008471     2348.4     46.968
                          1.0        0.0        1.0        0.0        0.0
   9000      .009  -546.68876 -1770.0924 2316.78113 -546.68876 -1770.0924 2316.78113 -407678.98 318560.244 89118.7343        0.0
                          0.0        0.0 -530.36404 -1721.5948 2251.95883 -407680.56 318556.985  89123.572 1191.23076 -3973.5536
                   2782.32287 1223.40362 -4086.8735 2863.46988 -726239.22  229441.51 496797.713 -.44542206 .239848879 .205573179
                   -.61036E-6 -.19365E-5 .254693E-5        0.0   136.2378   2.740557   3.070986    9.48763   10.63155    .288856
                         420.    .046225    .020379    .190804     .40386    .930442    .015306    .008471     2348.4     46.968
                          1.0        0.0        1.0        0.0        0.0
   9500     .0095  -170.84208  -2006.921 2177.76308 -170.84208  -2006.921 2177.76308 -423382.35 269768.721 153613.632        0.0
                          0.0        0.0 -164.95289 -1951.6916 2116.64444 -423383.18 269764.922 153618.258 1786.73866  -4068.336
                   2281.59733 1836.07893 -4184.6841 2348.60516 -693151.07 116155.089 576995.984 -.44303378 .178099661 .264934123
                   -.16489E-6 -.22151E-5 .218139E-5        0.0   136.2378   2.740557   3.070986    9.48763   10.63155    .288856
                         420.    .046225    .020379    .190804     .40386    .930442    .015306    .008471     2348.4     46.968
                          1.0        0.0        1.0        0.0        0.0
  10000       .01  209.211492 -2194.3326 1985.12112 209.211492 -2194.3326 1985.12112 -428660.65 214334.597 214326.052        0.0
                          0.0        0.0 204.519688 -2133.7311 1929.21144 -428660.71 214330.353 214330.352 2338.25081 -4062.9426
                   1724.69175  2403.5441 -4179.4537 1775.90963 -642995.25 8.54536109 642986.701 -.42973649  .11196501 .317771482
                   .230205E-6 -.23605E-5 .207371E-5        0.0   136.2378   2.740557   3.070986    9.48763   10.63155    .288856
                         420.    .046225    .020379    .190804     .40386    .930442    .015306    .008471     2348.4     46.968
                          1.0        0.0        1.0        0.0        0.0
  10500     .0105  584.113385 -2327.7124 1743.59906 584.113385 -2327.7124 1743.59906  -423383.9 153622.844 269761.053        0.0
                          0.0        0.0 568.956355 -2263.2311 1694.27474 -423383.18 153618.258 269764.922 2832.18745 -3957.5058
                   1125.31839 2911.82583 -4071.3115 1159.48567 -577006.74 -116138.21  693144.95 -.40585793 .043073544 .362784386
                   .607847E-6 -.26521E-5 .181713E-5        0.0   136.2378   2.740557   3.070986    9.48763   10.63155    .288856
                         420.    .046225    .020379    .190804     .40386    .930442    .015306    .008471     2348.4     46.968
                          1.0        0.0        1.0        0.0        0.0
  11000      .011  944.632208  -2403.776 1459.14384 944.632208  -2403.776 1459.14384 -407682.03 89128.3864 318553.642        0.0
                          0.0        0.0 919.383589  -2337.003 1417.61939 -407680.56  89123.572 318556.985 3256.38657 -3754.6224
                     498.2358 3348.40825 -3862.9199 514.511629 -496810.41 -229425.26  726235.67 -.37198568  -.0268786 .398864272
                   .957582E-6 -.23501E-5  .15063E-5        0.0   136.2378   2.740557   3.070986    9.48763   10.63155    .288856
                         420.    .046225    .020379    .190804     .40386    .930442    .015306    .008471     2348.4     46.968
                          1.0        0.0        1.0        0.0        0.0
  11500     .0115   1281.8918 -2420.6512 1138.75938  1281.8918 -2420.6512 1138.75938 -381941.68 22439.2923 359502.383        0.0
                          0.0        0.0 1247.17313 -2353.2303 1106.05715 -381939.48 22434.3679 359505.117 3600.40342 -3459.2874
                   -141.11598 3702.54298 -3559.4106 -143.13243 -404380.97 -337063.09 741444.058 -.32895389  -.0961689 .425122794
                   .141939E-5 -.23422E-5 .115007E-5        0.0   136.2378   2.740557   3.070986    9.48763   10.63155    .288856
                         420.    .046225    .020379    .190804     .40386    .930442    .015306    .008471     2348.4     46.968
                          1.0        0.0        1.0        0.0        0.0
  12000      .012  1587.58654 -2377.9216 790.335047 1587.58654 -2377.9216 790.335047 -346796.65 -44802.332 391598.982        0.0
                          0.0        0.0 1544.25185 -2311.5127 767.260829  -346793.8 -44807.245  391601.04 3855.76453 -3078.7735
                   -776.99102 3965.50814 -3168.2566  -797.2515 -301994.32 -436401.31 738395.632  -.2778222 -.16309119 .440913398
                    .15733E-5 -.24004E-5 .826782E-6        0.0   136.2378   2.740557   3.070986    9.48763   10.63155    .288856
                         420.    .046225    .020379    .190804     .40386    .930442    .015306    .008471     2348.4     46.968
                          1.0        0.0        1.0        0.0        0.0
  12500     .0125  1854.18967 -2276.6397  422.44999 1854.18967 -2276.6397  422.44999 -303112.34 -110940.77 414053.115        0.0
                          0.0        0.0 1803.30662 -2212.8783 409.571671 -303108.89 -110945.55 414054.446 4016.18492   -2622.45
                    -1393.735 4130.82932 -2699.0896 -1431.7397 -192171.57 -524993.89 717165.456 -.21984957 -.22599766 .445847231
                   .186076E-5 -.25595E-5 .414613E-6        0.0   136.2378   2.740557   3.070986    9.48763   10.63155    .288856
                         420.    .046225    .020379    .190804     .40386    .930442    .015306    .008471     2348.4     46.968
                          1.0        0.0        1.0        0.0        0.0
  13000      .013  2075.13652 -2119.2994 44.1628593 2075.13652 -2119.2994 44.1628593  -251964.4 -174347.49 426311.885        0.0
                          0.0        0.0 2017.95799 -2059.7554 41.7974336 -251960.44 -174352.02 426312.457 4077.71342 -2101.5529
                   -1976.1606  4194.4359 -2163.4622 -2030.9737 -77616.913 -600659.37 678276.284 -.15646355 -.28333929 .439802845
                   .220315E-5 -.20521E-5 .479267E-7        0.0   136.2378   2.740557   3.070986    9.48763   10.63155    .288856
                         420.    .046225    .020379    .190804     .40386    .930442    .015306    .008471     2348.4     46.968
                          1.0        0.0        1.0        0.0        0.0
  13500     .0135  2244.98661 -1909.7748 -335.21178 2244.98661 -1909.7748 -335.21178 -194612.26 -233461.18 428073.442        0.0
                          0.0        0.0 2182.92058 -1855.9146 -327.00594 -194607.89 -233465.35  428073.24 4038.83522 -1528.9087
                   -2509.9265 4154.76144  -1574.563 -2580.1984  38848.928 -661534.63 622685.698 -.08922483 -.33370419 .422929028
                   .212787E-5 -.19589E-5 -.33932E-6        0.0   136.2378   2.740557   3.070986    9.48763   10.63155    .288856
                         420.    .046225    .020379    .190804     .40386    .930442    .015306    .008471     2348.4     46.968
                          1.0        0.0        1.0        0.0        0.0
  14000      .014  2359.55771 -1653.2254 -706.33232 2359.55771 -1653.2254 -706.33232 -132468.12 -286826.29 419294.411        0.0
                          0.0        0.0 2294.13236  -1606.375 -687.75741 -132463.44   -286830.  419293.44 3900.50731 -918.61754
                   -2981.8898 4012.78309 -946.89306   -3065.89 154358.176  -706120.7 551762.528 -.01978912 -.37585218 .395641306
                   .247178E-5 -.16247E-5 -.73336E-6        0.0   136.2378   2.740557   3.070986    9.48763   10.63155    .288856
                         420.    .046225    .020379    .190804     .40386    .930442    .015306    .008471     2348.4     46.968
                          1.0        0.0        1.0        0.0        0.0
  14500     .0145   2416.0286  -1355.968 -1060.0606  2416.0286  -1355.968 -1060.0606 -67062.172 -333128.79 400190.959        0.0
                          0.0        0.0 2348.85509 -1317.2811  -1031.574 -67057.308 -333131.94 400189.244  3666.1362 -285.70714
                   -3380.4291 3771.99657 -295.90732 -3476.0892 266066.615 -733319.75 467253.131 .050133875 -.40874545 .358611575
                   .275798E-5 -.14217E-5  -.1109E-5        0.0   136.2378   2.740557   3.070986    9.48763   10.63155    .288856
                         420.    .046225    .020379    .190804     .40386    .930442    .015306    .008471     2348.4     46.968
                          1.0        0.0        1.0        0.0        0.0
  % % % % % %   Suspended simulation;  plot data space exhausted;  SPY SPACE is required.   LIMBUF =  840000.
  % % % % % %   Suspended simulation;  plot data space exhausted;  SPY SPACE is required.   LIMBUF =  840000.
  +++  Time-sharing disabled.   Send  user-keyed interrupt to silence alarm.
   Current values.  INDBUF  INDBEG  LIMBUF  MFLUSH  NUMDCD  KCARD1  KCARD2
                    839994      50  840000    1000     230       1     231
Plot timespan now in memory (in sec) = 0.00000000E+00   1.49990000E-02
   ++++  Begin plot-data copy from memory to disk.   MFLUSH, INDBUF, N4, Tbeg,  Tend = 1001  839994       1  -1.00000E+00
1.00000E+19
  15000      .015  2413.00892 -1025.3221 -1387.6868 2413.00892 -1025.3221 -1387.6868 -4.9331933 -371228.54 371233.478        0.0
                          0.0        0.0 2345.74109 -995.75137 -1349.9897 -.61533E-6 -371231.06  371231.06 3341.49246 354.238359
                   -3695.7308 3438.33104 362.364683 -3800.6957 371223.611 -742462.02 371238.411 .118822494 -.43157409 .312751594
                   .272651E-5 -.10586E-5 -.14409E-5        0.0   136.2378   2.740557   3.070986    9.48763   10.63155    .288856
                         420.    .046225    .020379    .190804     .40386    .930442    .015306    .008471     2348.4     46.968
                          1.0        0.0        1.0        0.0        0.0
  15500     .0155  2350.57288 -669.42945 -1681.1434 2350.57288 -669.42945 -1681.1434 67052.4263 -400187.42 333134.997        0.0
                          0.0        0.0 2284.86715 -649.70286 -1635.1643 67057.3081 -400189.24 333131.936 2934.57001 985.461433
                   -3920.0314 3020.00233 1011.71398 -4031.7163 467239.849 -733322.42  266082.57 .184585159 -.44377587 .259190708
                    .24759E-5 -.73763E-6 -.18519E-5        0.0   136.2378   2.740557   3.070986    9.48763   10.63155    .288856
                         420.    .046225    .020379    .190804     .40386    .930442    .015306    .008471     2348.4     46.968
                          1.0        0.0        1.0        0.0        0.0
  16000      .016  2230.25776 -297.05306 -1933.2047 2230.25776 -297.05306 -1933.2047 132458.733 -419292.36 286833.626        0.0
                          0.0        0.0  2167.7323 -287.65662 -1880.0757 132463.443 -419293.44 286829.997 2455.38891 1592.41906
                    -4047.808 2527.31083 1636.15164 -4163.4625 551751.092 -706125.99 154374.893 .245802826 -.44505046 .199247635
                   .240498E-5 -.30709E-6 -.20411E-5        0.0   136.2378   2.740557   3.070986    9.48763   10.63155    .288856
                         420.    .046225    .020379    .190804     .40386    .930442    .015306    .008471     2348.4     46.968
                          1.0        0.0        1.0        0.0        0.0
  16500     .0165  2055.02667 82.6375025 -2137.6642 2055.02667 82.6375025 -2137.6642 194603.466 -428072.93  233469.46        0.0
                          0.0        0.0 1997.22049 81.4728592 -2078.6933 194607.888 -428073.24 233465.353 1915.74763 2160.16621
                   -4075.9138 1972.38917 2220.30168 -4192.6908 622676.392 -661542.39 38865.9938 .300967975 -.43536642 .134398441
                   .228715E-5 .849412E-7 -.21732E-5        0.0   136.2378   2.740557   3.070986    9.48763   10.63155    .288856
                         420.    .046225    .020379    .190804     .40386    .930442    .015306    .008471     2348.4     46.968
                          1.0        0.0        1.0        0.0        0.0
  17000      .017  1829.19418 460.293269 -2289.4874 1829.19418 460.293269 -2289.4874 251956.416 -426312.92   174356.5        0.0
                          0.0        0.0 1777.53073 448.595986 -2226.1267 251960.441 -426312.46 174352.016 1328.93474  2674.7227
                   -4003.6574 1368.90091 2749.78071 -4118.6816 678269.332 -600669.42 -77599.916 .348722223 -.41496217 .066239947
                   .189741E-5 .507584E-6 -.21777E-5        0.0   136.2378   2.740557   3.070986    9.48763   10.63155    .288856
                         420.    .046225    .020379    .190804     .40386    .930442    .015306    .008471     2348.4     46.968
                          1.0        0.0        1.0        0.0        0.0
  17500     .0175  1558.32004 826.615394 -2384.9354 1558.32004 826.615394 -2384.9354 303105.363 -414055.67 110950.305        0.0
                          0.0        0.0 1514.07215 804.673304 -2318.7455 303108.891 -414054.45 110945.554 709.398845 3123.41876
                   -3832.8176 731.704647 3211.55083 -3943.2555  717161.03 -525005.97 -192155.06 .387889904 -.38434025 -.00354966
                   .171289E-5 .877886E-6 -.24769E-5        0.0   136.2378   2.740557   3.070986    9.48763   10.63155    .288856
                         420.    .046225    .020379    .190804     .40386    .930442    .015306    .008471     2348.4     46.968
                          1.0        0.0        1.0        0.0        0.0
  18000      .018  1249.07542 1172.58326 -2421.6587 1249.07542 1172.58326 -2421.6587 346790.849 -391602.99 44812.1457        0.0
                          0.0        0.0 1213.33195 1140.93698 -2354.2689 346793.795 -391601.04 44807.2448 72.3949719 3495.20591
                   -3567.6009 76.4921593 3594.24195 -3670.7341 738393.844 -436415.14  -301978.7 .417506335 -.34425453  -.0732518
                   .137439E-5 .125697E-5 -.26312E-5        0.0   136.2378   2.740557   3.070986    9.48763   10.63155    .288856
                         420.    .046225    .020379    .190804     .40386    .930442    .015306    .008471     2348.4     46.968
                          1.0        0.0        1.0        0.0        0.0
  18500     .0185  909.074294 1489.67835 -2398.7526 909.074294 1489.67835 -2398.7526 381937.195 -359507.76 -22429.438        0.0
                          0.0        0.0  882.71574 1449.10683 -2331.8226 381939.485 -359505.12 -22434.368 -566.39109  3780.9294
                   -3214.5383 -580.60406   3888.431 -3307.8269 741444.951 -337078.32 -404366.63 .436842275 -.29569208  -.1411502
                   .917013E-6 .156126E-5 -.27057E-5        0.0   136.2378   2.740557   3.070986    9.48763   10.63155    .288856
                         420.    .046225    .020379    .190804     .40386    .930442    .015306    .008471     2348.4     46.968
                          1.0        0.0        1.0        0.0        0.0
  19000      .019  546.688833 1770.09251 -2316.7813 546.688833 1770.09251 -2316.7813 407678.978 -318560.24 -89118.734        0.0
                          0.0        0.0 530.364204 1721.59489 -2251.9591 407680.557 -318556.98 -89123.572 -1191.2307 3973.55398
                   -2782.3233 -1223.4037 4086.87385 -2863.4702 726239.222 -229441.51 -496797.71 .445421979 -.23984884 -.20557314
                   .551727E-6 .190921E-5 -.25749E-5        0.0   136.2378   2.740557   3.070986    9.48763   10.63155    .288856
                         420.    .046225    .020379    .190804     .40386    .930442    .015306    .008471     2348.4     46.968
                          1.0        0.0        1.0        0.0        0.0
  19500     .0195  170.842189 2006.92114 -2177.7633 170.842189 2006.92114 -2177.7633 423382.353 -269768.72 -153613.63        0.0
                          0.0        0.0 164.952965 1951.69168 -2116.6446  423383.18 -269764.92 -153618.26 -1786.7387 4068.33633
                   -2281.5976 -1836.0789 4184.68446 -2348.6055 693151.074 -116155.09 -576995.98 .443033896 -.17809972 -.26493418
                   .185997E-6 .201987E-5  -.2149E-5        0.0   136.2378   2.740557   3.070986    9.48763   10.63155    .288856
                         420.    .046225    .020379    .190804     .40386    .930442    .015306    .008471     2348.4     46.968
                          1.0        0.0        1.0        0.0        0.0
  20000       .02  -209.21152 2194.33278 -1985.1213 -209.21152 2194.33278 -1985.1213 428660.649  -214334.6 -214326.05        0.0
                          0.0        0.0 -204.52014 2133.73153 -1929.2114 428660.705 -214330.35 -214330.35 -2338.2517 4062.94292
                   -1724.6913 -2403.5443 4179.45405 -1775.9098 642995.246 -8.5453749  -642986.7 .429736591 -.11196506 -.31777153
                   -.20818E-6  .23925E-5 -.20422E-5        0.0   136.2378   2.740557   3.070986    9.48763   10.63155    .288856
                         420.    .046225    .020379    .190804     .40386    .930442    .015306    .008471     2348.4     46.968
                          1.0        0.0        1.0        0.0        0.0
  20500     .0205  -584.11348  2327.7126 -1743.5991 -584.11348  2327.7126 -1743.5991 423383.896 -153622.84 -269761.05        0.0
                          0.0        0.0 -568.95652 2263.23135 -1694.2748  423383.18 -153618.26 -269764.92 -2832.1879 3957.50617
                   -1125.3183 -2911.8261 4071.31172 -1159.4856  577006.74 116138.209 -693144.95 .405857936 -.04307355 -.36278439
                   -.60863E-6 .265313E-5  -.1817E-5        0.0   136.2378   2.740557   3.070986    9.48763   10.63155    .288856
                         420.    .046225    .020379    .190804     .40386    .930442    .015306    .008471     2348.4     46.968
                          1.0        0.0        1.0        0.0        0.0
  21000      .021  -944.63264 2403.77642 -1459.1438 -944.63264 2403.77642 -1459.1438 407682.028 -89128.386 -318553.64        0.0
                          0.0        0.0 -919.38371 2337.00312 -1417.6194 407680.557 -89123.572 -318556.98 -3256.3868 3754.62253
                    -498.2357 -3348.4091  3862.9202 -514.51113 496810.414 229425.255 -726235.67 .371985665 .026878602 -.39886427
                   -.96357E-6 .235256E-5 -.15027E-5        0.0   136.2378   2.740557   3.070986    9.48763   10.63155    .288856
[...]
                         420.    .046225    .020379    .190804     .40386    .930442    .015306    .008471     2348.4     46.968
                          1.0        0.0        1.0        0.0        0.0
 113000      .113  -241928.94 -175490.56 417419.492 -241928.94 -175490.56 417419.492 -241928.94 -175490.56 417419.493        0.0
                          0.0        0.0 -202478.05 -172955.82 375433.875 -251960.44 -174352.02 426312.457 -29522.231  -548389.7
                   577911.927 -66438.378 -592910.05 659348.428 -66438.378 -592910.05 659348.428 -230.94885 41.2989494   189.6499
                   -.24712E-3 -.16911E-3 .416309E-3        0.0   136.2378   2.740557   3.070986    9.48763   10.63155    .288856
                         420.    .046225    .020379    .190804     .40386    .930442    .015306    .008471     2348.4     46.968
                          1.0        0.0        1.0        0.0        0.0
 113500     .1135  -179263.33 -230198.85 409462.183 -179263.33 -230198.85 409462.183 -179263.34 -230198.85 409462.183        0.0
                          0.0        0.0 -190574.79  -229492.9 420067.691 -194607.89 -233465.35  428073.24 38918.1013 -649560.59
                   610642.486 50935.5129 -639661.03 588725.518 50935.5123 -639661.03 588725.518 -235.50717 30.4250467 205.082128
                     -.192E-3 -.24039E-3 .432402E-3        0.0   136.2378   2.740557   3.070986    9.48763   10.63155    .288856
                         420.    .046225    .020379    .190804     .40386    .930442    .015306    .008471     2348.4     46.968
                          1.0        0.0        1.0        0.0        0.0
 114000      .114  -142095.91 -285465.15 427561.064 -142095.91 -285465.15 427561.064 -142095.91 -285465.15 427561.064        0.0
                          0.0        0.0 -138540.33 -284000.07 422540.398 -132463.44   -286830.  419293.44 145459.735 -706540.46
                   561080.729  143369.24 -713026.22 569656.976 143369.239 -713026.22 569656.977 -216.02991 16.3895566 199.640353
                   -.14859E-3 -.28599E-3  .40552E-3        0.0   136.2378   2.740557   3.070986    9.48763   10.63155    .288856
                         420.    .046225    .020379    .190804     .40386    .930442    .015306    .008471     2348.4     46.968
                          1.0        0.0        1.0        0.0        0.0
 114500     .1145   -68071.46 -325613.99  393685.45  -68071.46 -325613.99  393685.45  -68071.46 -325613.99  393685.45        0.0
                          0.0        0.0 -86521.727  -315956.8 402478.528 -67057.308 -333131.94 400189.244 229435.075 -718435.33
                   489000.254 257542.529 -719299.44  461756.91 257542.529 -719299.44  461756.91 -69.501234 -2.6758639 72.1770986
                   -.63852E-4 -.36146E-3 .439763E-3        0.0   136.2378   2.740557   3.070986    9.48763   10.63155    .288856
                         420.    .046225    .020379    .190804     .40386    .930442    .015306    .008471     2348.4     46.968
                          1.0        0.0        1.0        0.0        0.0
 115000      .115  222.247518 -372731.25 372509.007 222.247518 -372731.25 372509.007 222.247449 -372731.25 372509.007        0.0
                          0.0        0.0 20496.5834 -363475.33 342978.747 .127058E-4 -371231.06  371231.06 383971.914 -706454.08
                   322482.164 372953.502 -745240.26 372286.759 372953.502 -745240.26 372286.759 -34.367204 -4.9879029 39.3551077
                   .243995E-6 -.41869E-3 .407547E-3        0.0   136.2378   2.740557   3.070986    9.48763   10.63155    .288856
                         420.    .046225    .020379    .190804     .40386    .930442    .015306    .008471     2348.4     46.968
                          1.0        0.0        1.0        0.0        0.0
 115500     .1155  82373.1979 -409063.33 326690.133 82373.1979 -409063.33 326690.133 82373.1976 -409063.33 326690.133        0.0
                          0.0        0.0 85886.3735 -392761.59 306875.219 67057.3081 -400189.24 333131.936 478647.966 -699636.81
                   220988.846 491436.529 -735753.46 244316.935 491436.529 -735753.46 244316.936 -115.41084 -12.188376 127.599219
                   .897515E-4 -.42558E-3 .350416E-3        0.0   136.2378   2.740557   3.070986    9.48763   10.63155    .288856
                         420.    .046225    .020379    .190804     .40386    .930442    .015306    .008471     2348.4     46.968
                          1.0        0.0        1.0        0.0        0.0
 116000      .116  121094.658 -421566.94 300472.283 121094.658 -421566.94 300472.283 121094.658 -421566.94 300472.283        0.0
                          0.0        0.0 156683.369 -416033.47 259350.103 132463.443 -419293.44 286829.997 572716.841 -675383.57
                   102666.734 542661.599 -722039.22 179377.625 542661.598 -722039.22 179377.625 -209.88272  -18.90317 228.785894
                     .1181E-3 -.44362E-3 .311106E-3        0.0   136.2378   2.740557   3.070986    9.48763   10.63155    .288856
                         420.    .046225    .020379    .190804     .40386    .930442    .015306    .008471     2348.4     46.968
                          1.0        0.0        1.0        0.0        0.0
 116500     .1165  197647.084 -429876.17 232229.086 197647.084 -429876.17 232229.086 197647.084 -429876.17 232229.086        0.0
                          0.0        0.0 163795.742 -411106.75  247311.01 194607.888 -428073.24 233465.353 574902.495 -658417.76
                   83515.2677 627523.254 -662105.26 34582.0016 627523.254 -662105.26 34582.0026  -229.2084 -35.389343 264.597747
                   .218504E-3  -.4199E-3 .230506E-3        0.0   136.2378   2.740557   3.070986    9.48763   10.63155    .288856
                         420.    .046225    .020379    .190804     .40386    .930442    .015306    .008471     2348.4     46.968
                          1.0        0.0        1.0        0.0        0.0
 117000      .117  239876.122 -429033.19 189157.068 239876.122 -429033.19 189157.068 239876.122 -429033.19 189157.068        0.0
                          0.0        0.0 210720.108 -419129.77  208409.66 251960.441 -426312.46 174352.016 629849.877 -627539.43
                   -2310.4478 668909.312 -618190.26 -50719.055 668909.311 -618190.26 -50719.054 -119.55106 -46.536742 166.087797
                   .256005E-3 -.44966E-3  .19367E-3        0.0   136.2378   2.740557   3.070986    9.48763   10.63155    .288856
                         420.    .046225    .020379    .190804     .40386    .930442    .015306    .008471     2348.4     46.968
                          1.0        0.0        1.0        0.0        0.0
 117500     .1175  295285.356 -411296.93 116011.579 295285.356 -411296.93 116011.579 295285.356 -411296.93 116011.579        0.0
                          0.0        0.0 266589.278 -395222.33 128633.056 303108.891 -414054.45 110945.554 661811.612 -523855.39
                   -137956.22  706582.29 -527308.51 -179273.78  706582.29 -527308.51 -179273.78 -70.592854  -72.75947 143.352323
                   .328241E-3 -.41339E-3 .114202E-3        0.0   136.2378   2.740557   3.070986    9.48763   10.63155    .288856
                         420.    .046225    .020379    .190804     .40386    .930442    .015306    .008471     2348.4     46.968
                          1.0        0.0        1.0        0.0        0.0
 118000      .118  347799.574  -391671.7 43872.1278 347799.574  -391671.7 43872.1278 347799.574  -391671.7  43872.128        0.0
                          0.0        0.0 355052.001 -379151.37 24099.3696 346793.795 -391601.04 44807.2447 734203.372 -403250.74
                   -330952.63 739471.276 -435543.83 -303927.45 739471.276 -435543.83 -303927.45 -25.707975 -82.756047 108.464021
                   .392777E-3 -.38775E-3  .45862E-4        0.0   136.2378   2.740557   3.070986    9.48763   10.63155    .288856
                         420.    .046225    .020379    .190804     .40386    .930442    .015306    .008471     2348.4     46.968
                          1.0        0.0        1.0        0.0        0.0
 118500     .1185  401347.335 -361921.06 -39426.276 401347.335 -361921.06 -39426.276 401347.334 -361921.06 -39426.276        0.0
                          0.0        0.0 403944.641  -356576.9  -47367.74 381939.485 -359505.12 -22434.368 760521.542 -309209.16
                   -451312.38 763268.393 -322494.78 -440773.61 763268.393 -322494.78 -440773.61 -158.79526 -78.755342 237.550602
                   .432863E-3 -.36743E-3 -.43593E-4        0.0   136.2378   2.740557   3.070986    9.48763   10.63155    .288856
                         420.    .046225    .020379    .190804     .40386    .930442    .015306    .008471     2348.4     46.968
                          1.0        0.0        1.0        0.0        0.0
 119000      .119  410867.616 -328249.29 -82618.322 410867.616 -328249.29 -82618.322 410867.616 -328249.29 -82618.322        0.0
                          0.0        0.0 404197.421 -310589.23 -93608.195 407680.557 -318556.98 -89123.572 714786.647 -216981.03
                   -497805.62  739116.91 -245630.97 -493485.94  739116.91 -245630.97 -493485.94  -174.6468 -84.894209 259.541006
                   .393012E-3 -.33449E-3 -.87522E-4        0.0   136.2378   2.740557   3.070986    9.48763   10.63155    .288856
                         420.    .046225    .020379    .190804     .40386    .930442    .015306    .008471     2348.4     46.968
                          1.0        0.0        1.0        0.0        0.0
 119500     .1195  421137.884 -269441.13 -151696.75 421137.884 -269441.13 -151696.75 421137.883 -269441.13 -151696.75        0.0
                          0.0        0.0 403834.853  -254842.6 -148992.26  423383.18 -269764.92 -153618.26  658677.45 -105850.34
                   -552827.11 690579.017 -117744.38 -572834.63 690579.017 -117744.38 -572834.63 -162.29522 -102.91408   265.2093
                   .429155E-3 -.28662E-3  -.1425E-3        0.0   136.2378   2.740557   3.070986    9.48763   10.63155    .288856
                         420.    .046225    .020379    .190804     .40386    .930442    .015306    .008471     2348.4     46.968
                          1.0        0.0        1.0        0.0        0.0
  % % % % % %   Suspended simulation;  plot data space exhausted;  SPY SPACE is required.   LIMBUF =  840000.
  % % % % % %   Suspended simulation;  plot data space exhausted;  SPY SPACE is required.   LIMBUF =  840000.
  +++  Time-sharing disabled.   Send  user-keyed interrupt to silence alarm.
   Current values.  INDBUF  INDBEG  LIMBUF  MFLUSH  NUMDCD  KCARD1  KCARD2
                    839994      50  840000    1007     230       1     231
Plot timespan now in memory (in sec) = 1.04985997E-01   1.19985000E-01
   ++++  Begin plot-data copy from memory to disk.   MFLUSH, INDBUF, N4, Tbeg,  Tend = 1008  839994       1  -1.00000E+00
1.00000E+19
 120000       .12  432711.644  -211924.5 -220787.14 432711.644  -211924.5 -220787.14 432711.644  -211924.5 -220787.14        0.0
                          0.0        0.0 397242.288 -207163.24 -190079.04 428660.705 -214330.35 -214330.35 604405.532 -17084.201
                   -587321.33 644636.147 8862.63917 -653498.79 644636.147 8862.63877 -653498.79 3.72196706 -103.20655 99.4845813
                   .463834E-3 -.20968E-3 -.22511E-3        0.0   136.2378   2.740557   3.070986    9.48763   10.63155    .288856
                         420.    .046225    .020379    .190804     .40386    .930442    .015306    .008471     2348.4     46.968
                          1.0        0.0        1.0        0.0        0.0

Extrema of output variables follow.   Order and column positioning are the same as for the preceding time-step loop output.
Variable maxima :  457806.697 445795.618 447332.155 457806.697 445795.618 447332.155 457806.697 540905.124 447332.155        0.0
                          0.0        0.0 510833.885  450511.42 461472.416 428660.705 428660.703 428660.703 822205.883 815295.902
                   856744.418 787211.489 786414.179 820034.626 787211.489 786414.179 820034.626  239.14821 601.304646 532.048832
                   .509032E-3 .491707E-3  .49746E-3        0.0   136.2378   2.740557   3.070986    9.48763   10.63155    .288856
                         420.    .046225    .020379    .190804     .40386    .930442    .015306    .008471     2348.4     46.968
                          1.0        0.0        1.0        0.0        0.0
Times of maxima :     .059283    .066846    .093437    .059283    .066846    .093437    .059283    .047483    .093437        0.0
                          0.0        0.0    .059698    .048097    .072449        0.0    .006667    .113333    .058965    .065184
                        .0721    .078948    .064842     .07207    .078948    .064842     .07207    .063969    .046736    .057618
                      .059276    .066838     .09343        0.0        0.0        0.0        0.0        0.0        0.0        0.0
                          0.0        0.0        0.0        0.0        0.0        0.0        0.0        0.0        0.0        0.0
                          0.0        0.0        0.0        0.0        0.0
Variable minima :  -460886.99 -450333.69 -442568.92 -460886.99 -450333.69 -442568.92 -460886.99 -450333.69 -442568.92        0.0
                          0.0        0.0 -493283.24  -449390.9 -489281.16 -428660.71  -428660.7  -428660.7 -816546.91 -829887.97
                   -904520.68 -774634.73 -797090.41 -813729.07 -885219.82 -797090.41 -813729.07 -471.21548  -158.7174 -343.90499
                   -.51158E-3 -.49843E-3 -.49639E-3        0.0   136.2378   2.740557   3.070986    9.48763   10.63155    .288856
                         420.    .046225    .020379    .190804     .40386    .930442    .015306    .008471     2348.4     46.968
                          1.0        0.0        1.0        0.0        0.0
Times of minima :     .069259    .057158    .062248    .069259    .057158    .062248    .069259    .057158    .062248        0.0
                          0.0        0.0    .069406    .056557    .062551        .01    .016667    .103333    .068772    .055354
                       .06192    .069257     .05504    .081735    .047485     .05504    .081735    .054226    .060869    .046413
                      .069249    .057156    .062997        0.0        0.0        0.0        0.0        0.0        0.0        0.0
                          0.0        0.0        0.0        0.0        0.0        0.0        0.0        0.0        0.0        0.0
                          0.0        0.0        0.0        0.0        0.0

Blank card terminating all plot cards.            |BLANK PLOT

Memory storage figures for the preceding, now-completed data case.  -------------------------------  Present   Program
A value of  "-9999"  indicates that no figure is available.         28-Feb-22  19:47:20              figure     limit  (name)
     Size List 1.   Number of electric network nodes.                                                   37      6000  (LBUS)
     Size List 2.   Number of electric network branches.                                                39     10000  (LBRNCH)
     Size List 3.   Number of data values in R, L, C tables.                                            45    192000  (LDATA)
     Size List 4.   Number of electric network sources.                                                  3       900  (LEXCT)
     Size List 5.   Storage for [Y] and triangularized [Y].   No. times =    3     Factors =    66     189    420000  (LYMAT)
     Size List 6.   Number of entries in switch table.                  No. flops = 18                  21      1200  (LSWTCH)
     Size List 7.   Number of distinct ALPHANUMERIC data names plus program SPY variables.              25     15000  (LSIZE7)
     Size List 8.   History points of distributed lines.                                              1896    120000  (LPAST)
     Size List 9.   Number of nonlinear elements.                                                        0      2250  (LNONL)
     Size List 10.  Points of nonlinear characteristics.                                                 0      3800  (LCHAR)
     Size List 11.  Number of Type-59 S.M. outputs.                                                      0       720  (LSMOUT)
     Size List 12.  Total number of EMTP output variables.                                              55      2000  (LSIZ12)
     Size List 13.  Working space for batch/SPY plotting.                                            -9999     72800  (LSIZ13)
     Size List 14.  S.M./U.M. connections to TACS.                                                   -9999       510  (LBSTAC)
     Size List 15.  Character storage in bytes for MODELS.                                            3292     90000  (LCTACS)
     Size List 16.  Total number of Type-59 S.M. masses.                                                 0       800  (LIMASS)
     Size List 17.  Number of Type-59 Synchronous machines.                                              0        90  (LSYN)
     Size List 18.  Branch and switch power/energy outputs.                                              0       254  (MAXPE)
     Size List 19.  Total floating-point TACS table space.                                              23    120000  (LTACST)
     Size List 20.  Non-copied recursive convolution data.                                               0    100000  (LFSEM)
     Size List 21.  Total modal/phase [T] matrix storage.                                                9      3000  (LFD)
     Size List 22.  Total recursive convolution history.                                                 0     15000  (LHIST)
     Size List 23.  Giant vectors for renumbering, phasors;  also extrema accumulation.                  93    192000  (LSIZ23)
     Size List 24.  Peak phases of compensation for data.                                                0       120  (LCOMP)
     Size List 25.  Total table space for all U.M usage.                                             -9999     45000  (LSPCUM)
     Size List 26.  Square of max number of coupled phases.                                              9    260000  (LSIZ26)
     Size List 27.  Maximum number of MODELS top variables.                                             44       600  (LSIZ27)
     Size List 28.  MODELS.  Total work space is divided into INTEGER and REAL.  1st, REAL:           1780    210000  (LRTACS)
                             Second  and last,  statistics for INTEGER work space.                    6838         0  (LITACS)
     Size List 29.  RAM disk used by "TAPSAV" table saving (limit is "LABCOM" size LTLABL).          -9999       600  (LSIZ29)
     Size List 30.  Taku Noda frequency-dependent circuits.                                              0        19  (LSIZ30)
Timing figures characterizing central processor (CP) solution speed.  ----------------------------   CP sec  Wait sec  Real sec
     Data input time (through blank card ending branches) ....                                       0.031     0.000     0.031
     Node renumbering and phasor solution  ....                                                      0.016     0.000     0.016
     After phasor solution, but before time-step loop  ....                                          0.000     0.000     0.000
     Integration of equations (time-step loop)  ....                                                 0.938     0.000     0.938
     Plotting or STATISTICS termination overlays ....                                                0.016     0.000     0.016
                                                                                                    ---------------------------
                                                                                          Totals      1.000     0.000     1.000

