   ---   236   cards of disk file read into card cache cells  1   onward.
 Comment card is ignored.      |C   LBUS  LBRNCH   LDATA   LEXCT   LYMAT  LSWTCH
 Limit CIDEAL cards =   200    |CARDS        200 { Limit of CIDEAL will be 2 mor
 1st card (Lists  1-10).       |    6000   10000  192000     900  420000    120
 Comment card is ignored.      |C LSMOUT  LSIZ12  LSIZ13  LBSTAC  LCTACS  LIMASS
 2nd card (Lists 11-20).       |     720    2000   72800     510   90000     80
 Comment card is ignored.      |C    LFD   LHIST  LSIZ23   NCOMP  LSPCUM  LSIZ26
 3rd card (Lists 21-30).       |    3000   15000  192000     120   45000  26000
 4th card (Lists 31-32).       |     200     300     { Optional card for Lists
 Comment card is ignored.      |C  LWORK  LMARTI
 Supplemental offsets.         |  840000     742
 <===> Done with  "/"-card sorting by data class.    Remember that the source file appears different from interpreted input data.
Alternative Transients Program (ATP),  GNU Linux or DOS.  All rights reserved by Can/Am user group of Portland, Oregon, USA.
 Date (dd-mth-yy) and time of day (hh.mm.ss) = 28-Feb-22  20:03:41   Name of disk plot file is  draw6.3\bernal\energizacion4310.pl4
Consult the 860-page ATP Rule Book of the Can/Am EMTP User Group in Portland,  Oregon, USA.  Source code date is 12 August 2008.
Total size of LABCOM tables = 10913436 INTEGER words.  31 VARDIM  List Sizes follow:  6002  10K  192K  900  420K  1200  15K
  120K  2250  3800  720  2K  72800  510  90K  800  90  254  120K  100K  3K  15K  192K  120  45K  260K  600  210K  1100  60  200
--------------------------------------------------+--------------------------------------------------------------------------------
Descriptive interpretation of input data cards.   |  Input data card images are shown below, all 80 columns, character by character
                                                  0         1         2         3         4         5         6         7         8
                                                  012345678901234567890123456789012345678901234567890123456789012345678901234567890
--------------------------------------------------+--------------------------------------------------------------------------------
Comment card.   NUMDCD = 1.                       |C data:C:\ATP\ATPDRAW6.3\BERNAL\ENERGIZACION4310.ATP
Marker card preceding new EMTP data case.         |BEGIN NEW DATA CASE
Comment card.   NUMDCD = 3.                       |C --------------------------------------------------------
Comment card.   NUMDCD = 4.                       |C Generated by ATPDRAW  febrero, lunes 28, 2022
Comment card.   NUMDCD = 5.                       |C A Bonneville Power Administration program
Comment card.   NUMDCD = 6.                       |C by H. K. Høidalen at SEfAS/NTNU - NORWAY 1994-2016
Comment card.   NUMDCD = 7.                       |C --------------------------------------------------------
Comment card.   NUMDCD = 8.                       |C  dT  >< Tmax >< Xopt >< Copt ><Epsiln>
Misc. data.     1.000E-06   1.200E-01   5.000E+01 |   1.E-6     .12     50.
Misc. data.    500    1  0  1  1  0  0  0  0  0   |     500       1       0       1       1       0       0       0       0
  ///  Warning.  Nonzero XOPT or COPT differs from the power frequency of  6.00000000E+01  Hz.   Did the user really want this?
No TACS data,  but MODELS data begins (next).     |MODELS
      Another ordinary MODELS data card.          |OUTPUT
      Another ordinary MODELS data card.          |  AnVol
      Another ordinary MODELS data card.          |  LONG
      Another ordinary MODELS data card.          |  R0F
      Another ordinary MODELS data card.          |  R1F
      Another ordinary MODELS data card.          |  X0F
      Another ordinary MODELS data card.          |  X1F
      Another ordinary MODELS data card.          |  RDIVX
      Another ordinary MODELS data card.          |  RINSER
      Another ordinary MODELS data card.          |  CLOSE1
      Another ordinary MODELS data card.          |  RPpos
      Another ordinary MODELS data card.          |  RPcero
      Another ordinary MODELS data card.          |  LPpos
      Another ordinary MODELS data card.          |  LPcero
      Another ordinary MODELS data card.          |  CPpos
      Another ordinary MODELS data card.          |  CPcero
      Another ordinary MODELS data card.          |  Xp
      Another ordinary MODELS data card.          |  CR
      Another ordinary MODELS data card.          |  SIMET
      Another ordinary MODELS data card.          |  ENC1
      Another ordinary MODELS data card.          |  ENC2
      Another ordinary MODELS data card.          |  ENC1AS
      Another ordinary MODELS data card.          |  ENC2AS
      Another ordinary MODELS data card.          |MODEL DEFAULT
      Another ordinary MODELS data card.          |DATA AnVol,LONG,R0F,R1F,X0F,X1F,RDIVX,RINSER,CLOSE1,RPpos,RPcero,LPpos,LPcero
      Another ordinary MODELS data card.          |OUTPUT o1,o2,o3, o4, o5, o6, o7, o8, o9, o10, o11, o12, o13
      Another ordinary MODELS data card.          |VAR o1,o2,o3, o4, o5, o6, o7, o8, o9, o10, o11, o12, o13
      Another ordinary MODELS data card.          |INIT
      Another ordinary MODELS data card.          |  o1:=AnVol
      Another ordinary MODELS data card.          |  o2:=LONG
      Another ordinary MODELS data card.          |  o3:=R0F
      Another ordinary MODELS data card.          |  o4:=R1F
      Another ordinary MODELS data card.          |  o5:=X0F
      Another ordinary MODELS data card.          |  O6:=X1F
      Another ordinary MODELS data card.          |  o7:=RDIVX
      Another ordinary MODELS data card.          |  o8:=RINSER
      Another ordinary MODELS data card.          |  o9:=CLOSE1
      Another ordinary MODELS data card.          |  o10:=RPpos
      Another ordinary MODELS data card.          |  o11:=RPcero
      Another ordinary MODELS data card.          |  o12:=LPpos
      Another ordinary MODELS data card.          |  o13:=LPcero
      Another ordinary MODELS data card.          |
      Another ordinary MODELS data card.          |ENDINIT
      Another ordinary MODELS data card.          |EXEC
      Another ordinary MODELS data card.          |ENDEXEC
      Another ordinary MODELS data card.          |ENDMODEL
      Another ordinary MODELS data card.          |MODEL DEFAULT1
      Another ordinary MODELS data card.          |DATA CPpos,CPcero,Xp,CR,SIMET,ENC1,ENC2,ENC1AS,ENC2AS
      Another ordinary MODELS data card.          |OUTPUT o1, o2, o3, o4, o5, o6, o7, o8, o9
      Another ordinary MODELS data card.          |VAR o1, o2, o3, o4, o5, o6, o7, o8, o9
      Another ordinary MODELS data card.          |INIT
      Another ordinary MODELS data card.          |  o1:=CPpos
      Another ordinary MODELS data card.          |  o2:=CPcero
      Another ordinary MODELS data card.          |  o3:=Xp
      Another ordinary MODELS data card.          |  o4:=CR
      Another ordinary MODELS data card.          |  o5:=SIMET
      Another ordinary MODELS data card.          |  o6:=ENC1
      Another ordinary MODELS data card.          |  o7:=ENC2
      Another ordinary MODELS data card.          |  o8:=ENC1AS
      Another ordinary MODELS data card.          |  o9:=ENC2AS
      Another ordinary MODELS data card.          |
      Another ordinary MODELS data card.          |ENDINIT
      Another ordinary MODELS data card.          |EXEC
      Another ordinary MODELS data card.          |ENDEXEC
      Another ordinary MODELS data card.          |ENDMODEL
      Another ordinary MODELS data card.          |USE DEFAULT AS DEFAULT
      Another ordinary MODELS data card.          |DATA
      Another ordinary MODELS data card.          |  AnVol:=      0.0
      Another ordinary MODELS data card.          |  LONG:= 459.7479
      Another ordinary MODELS data card.          |  R0F:= 1.077258
      Another ordinary MODELS data card.          |  R1F:= 1.073736
      Another ordinary MODELS data card.          |  X0F:= 5.510183
      Another ordinary MODELS data card.          |  X1F:= 5.492172
      Another ordinary MODELS data card.          |  RDIVX:= 0.195503
      Another ordinary MODELS data card.          |  RINSER:=     440.
      Another ordinary MODELS data card.          |  CLOSE1:= 0.059782
      Another ordinary MODELS data card.          |  RPpos:= 0.024236
      Another ordinary MODELS data card.          |  RPcero:= 0.294419
      Another ordinary MODELS data card.          |  LPpos:= 0.242041
      Another ordinary MODELS data card.          |  LPcero:= 1.127143
      Another ordinary MODELS data card.          |OUTPUT
      Another ordinary MODELS data card.          |  AnVol:=o1
      Another ordinary MODELS data card.          |  LONG:=o2
      Another ordinary MODELS data card.          |  R0F:=o3
      Another ordinary MODELS data card.          |  R1F:=o4
      Another ordinary MODELS data card.          |  X0F:=o5
      Another ordinary MODELS data card.          |  X1F:=o6
      Another ordinary MODELS data card.          |  RDIVX:=o7
      Another ordinary MODELS data card.          |  RINSER:=o8
      Another ordinary MODELS data card.          |  CLOSE1:=o9
      Another ordinary MODELS data card.          |  RPpos:=o10
      Another ordinary MODELS data card.          |  RPcero:=o11
      Another ordinary MODELS data card.          |  LPpos:=o12
      Another ordinary MODELS data card.          |  LPcero:=o13
      Another ordinary MODELS data card.          |ENDUSE
      Another ordinary MODELS data card.          |USE DEFAULT1 AS DEF
      Another ordinary MODELS data card.          |DATA
      Another ordinary MODELS data card.          |  CPpos:= 0.011867
      Another ordinary MODELS data card.          |  CPcero:= 0.006306
      Another ordinary MODELS data card.          |  Xp:= 897.5777
      Another ordinary MODELS data card.          |  CR:= 17.95155
      Another ordinary MODELS data card.          |  SIMET:=       1.
      Another ordinary MODELS data card.          |  ENC1:=       1.
      Another ordinary MODELS data card.          |  ENC2:=       1.
      Another ordinary MODELS data card.          |  ENC1AS:=      0.0
      Another ordinary MODELS data card.          |  ENC2AS:=      0.0
      Another ordinary MODELS data card.          |OUTPUT
      Another ordinary MODELS data card.          |  CPpos:=o1
      Another ordinary MODELS data card.          |  CPcero:=o2
      Another ordinary MODELS data card.          |  Xp:=o3
      Another ordinary MODELS data card.          |  CR:=o4
      Another ordinary MODELS data card.          |  SIMET:=o5
      Another ordinary MODELS data card.          |  ENC1:=o6
      Another ordinary MODELS data card.          |  ENC2:=o7
      Another ordinary MODELS data card.          |  ENC1AS:=o8
      Another ordinary MODELS data card.          |  ENC2AS:=o9
      Another ordinary MODELS data card.          |ENDUSE
      Another ordinary MODELS data card.          |RECORD
      Another ordinary MODELS data card.          |  DEFAULT.o1 AS AnVOL
      Another ordinary MODELS data card.          |  DEFAULT.o2 AS LONG
      Another ordinary MODELS data card.          |  DEFAULT.o3 AS R0F
      Another ordinary MODELS data card.          |  DEFAULT.o4 AS R1F
      Another ordinary MODELS data card.          |  DEFAULT.o5 AS X0F
      Another ordinary MODELS data card.          |  DEFAULT.o6 AS X1F
      Another ordinary MODELS data card.          |  DEFAULT.o7 AS RDIVX
      Another ordinary MODELS data card.          |  DEFAULT.o8 AS RINSER
      Another ordinary MODELS data card.          |  DEFAULT.o9 AS CLOSE1
      Another ordinary MODELS data card.          |  DEFAULT.o10 AS RPpos
      Another ordinary MODELS data card.          |  DEFAULT.o11 AS RPcero
      Another ordinary MODELS data card.          |  DEFAULT.o12 AS LPpos
      Another ordinary MODELS data card.          |  DEFAULT.o13 AS LPcero
      Another ordinary MODELS data card.          |  DEF.o1 AS CPpos
      Another ordinary MODELS data card.          |  DEF.o2 AS CPcero
      Another ordinary MODELS data card.          |  DEF.o3 AS Xp
      Another ordinary MODELS data card.          |  DEF.o4 AS CR
      Another ordinary MODELS data card.          |  DEF.o5 AS SIMET
      Another ordinary MODELS data card.          |  DEF.o6 AS ENC1
      Another ordinary MODELS data card.          |  DEF.o7 AS ENC2
      Another ordinary MODELS data card.          |  DEF.o8 AS ENC1AS
      Another ordinary MODELS data card.          |  DEF.o9 AS ENC2AS
Termination of data for Laurent Dube`s MODELS.    |ENDMODELS
Comment card.   NUMDCD = 153.                     |C        1         2         3         4         5         6         7         8
Comment card.   NUMDCD = 154.                     |C 345678901234567890123456789012345678901234567890123456789012345678901234567890
Optional blank card follows last of MODELS data.  |BLANK MODELS
Comment card.   NUMDCD = 156.                     |C < n1 >< n2 ><ref1><ref2>< R  >< L  >< C  >
Comment card.   NUMDCD = 157.                     |C < n1 >< n2 ><ref1><ref2>< R  >< A  >< B  ><Leng><><>0
1st of coupled R-L.   1.07730E+00  1.75395E-02    |51IFUENASB1A              1.07735.5101831639
2nd coil. 1.074E+00 1.748E-02 0.000E+00 0.000E+00 |52IFUENBSB1B              1.07375.4921720438
Zca, Zcc= 1.200E-03 1.911E-05 1.075E+00 1.750E-02 |53IFUENCSB1C
Series R-L-C.   1.000E+09  0.000E+00  0.000E+00   |  SB1A                      1.E9                                               0
Series R-L-C.   1.000E+09  0.000E+00  0.000E+00   |  SB1B                      1.E9                                               0
Series R-L-C.   1.000E+09  0.000E+00  0.000E+00   |  SB1C                      1.E9                                               0
Series R-L-C.   8.976E+00  1.429E+00  0.000E+00   |  RSNSHA                  8.9758448.79                                         0
Series R-L-C.   8.976E+00  1.429E+00  0.000E+00   |  RSNSHB                  8.9758448.79                                         0
Series R-L-C.   8.976E+00  1.429E+00  0.000E+00   |  RSNSHC                  8.9758448.79                                         0
Series R-L-C.   8.976E+00  1.429E+00  0.000E+00   |  RSNNHA                  8.9758448.79                                         0
Series R-L-C.   8.976E+00  1.429E+00  0.000E+00   |  RSNNHB                  8.9758448.79                                         0
Series R-L-C.   8.976E+00  1.429E+00  0.000E+00   |  RSNNHC                  8.9758448.79                                         0
Series R-L-C.   1.000E+09  0.000E+00  0.000E+00   |  SE2A                      1.E9                                               0
Series R-L-C.   1.000E+09  0.000E+00  0.000E+00   |  SE2B                      1.E9                                               0
Series R-L-C.   1.000E+09  0.000E+00  0.000E+00   |  SE2C                      1.E9                                               0
Series R-L-C.   2.500E+02  0.000E+00  3.000E-10   |  X0001B                    250.       .0003                                   0
Series R-L-C.   2.500E+02  0.000E+00  3.000E-10   |  X0002B                    250.       .0003                                   0
Series R-L-C.   1.000E-06  0.000E+00  0.000E+00   |  X0001ALN1A               1.E-6                                               0
Series R-L-C.   1.000E-06  0.000E+00  0.000E+00   |  SB1A  X0002A             1.E-6                                               0
Series R-L-C.   1.000E-06  0.000E+00  0.000E+00   |  X0001BLN1B               1.E-6                                               0
Series R-L-C.   1.000E-06  0.000E+00  0.000E+00   |  SB1B  X0002B             1.E-6                                               0
Series R-L-C.   1.000E-06  0.000E+00  0.000E+00   |  X0001CLN1C               1.E-6                                               0
Series R-L-C.   1.000E-06  0.000E+00  0.000E+00   |  SB1C  X0002C             1.E-6                                               0
Series R-L-C.   4.400E+02  0.000E+00  0.000E+00   |  XX0005X0002A              440.                                               0
Series R-L-C.   4.400E+02  0.000E+00  0.000E+00   |  XX0003X0002B              440.                                               0
Series R-L-C.   4.400E+02  0.000E+00  0.000E+00   |  XX0004X0002C              440.                                               0
Series R-L-C.   2.500E+02  0.000E+00  3.000E-10   |  X0001A                    250.       .0003                                   0
Series R-L-C.   1.000E+06  0.000E+00  0.000E+00   |  X0001AX0002A              1.E6                                               0
Series R-L-C.   1.000E+06  0.000E+00  0.000E+00   |  X0001BX0002B              1.E6                                               0
Series R-L-C.   1.000E+06  0.000E+00  0.000E+00   |  X0001CX0002C              1.E6                                               0
Series R-L-C.   2.500E+02  0.000E+00  3.000E-10   |  X0002C                    250.       .0003                                   0
Series R-L-C.   2.500E+02  0.000E+00  3.000E-10   |  X0002A                    250.       .0003                                   0
Series R-L-C.   2.500E+02  0.000E+00  3.000E-10   |  X0001C                    250.       .0003                                   0
Series R-L-C.   1.250E+02  0.000E+00  6.000E-10   |  X0001AX0002A              125.       .0006                                   0
Series R-L-C.   1.250E+02  0.000E+00  6.000E-10   |  X0001BX0002B              125.       .0006                                   0
Series R-L-C.   1.250E+02  0.000E+00  6.000E-10   |  X0001CX0002C              125.       .0006                                   0
 2.944E-01 1.127E+00 6.310E-03 7.540E+02 2.187E-03|-1LN1A  VFF2A             .294421.1271.00631459.75 0 0                         0
 2.424E-02 2.420E-01 1.187E-02 2.548E+02 1.390E-03|-2LN1B  VFF2B             .02424.24204.01187459.75 0 0                         0
3rd or later transposed distributed phase.        |-3LN1C  VFF2C                                                                  0
Blank card ending branches.  IBR, NTOT = 39  31   |BLANK BRANCH
Comment card.   NUMDCD = 198.                     |C < n 1>< n 2>< Tclose ><Top/Tde ><   Ie   ><Vf/CLOP ><  type  >
Switch.  -1.00E+00  1.00E+01  0.00E+00  0.00E+00  |  LN1A  COMPA        -1.       10.                                             0
Switch.  -1.00E+00  1.00E+01  0.00E+00  0.00E+00  |  LN1B  COMPB        -1.       10.                                             0
Switch.  -1.00E+00  1.00E+01  0.00E+00  0.00E+00  |  LN1C  COMPC        -1.       10.                                             0
Switch.  -1.00E+00  1.00E+01  0.00E+00  0.00E+00  |  VFF2A RSNNHA       -1.       10.                                             0
Switch.  -1.00E+00  1.00E+01  0.00E+00  0.00E+00  |  VFF2B RSNNHB       -1.       10.                                             0
Switch.  -1.00E+00  1.00E+01  0.00E+00  0.00E+00  |  VFF2C RSNNHC       -1.       10.                                             0
Switch.   2.00E+00 -1.00E+00  0.00E+00  0.00E+00  |  VFF2A SE2A          2.       -1.                                             0
Switch.   2.00E+00 -1.00E+00  0.00E+00  0.00E+00  |  VFF2B SE2B          2.       -1.                                             0
Switch.   2.00E+00 -1.00E+00  0.00E+00  0.00E+00  |  VFF2C SE2C          2.       -1.                                             0
Switch.   5.98E-02  1.00E+03  0.00E+00  0.00E+00  |  X0001BXX0003.059781776      1.E3                                             0
Switch.   5.98E-02  1.00E+03  0.00E+00  0.00E+00  |  X0001CXX0004.059781776      1.E3                                             0
Switch.   6.73E-02  1.00E+03  0.00E+00  0.00E+00  |  XX0005X0002A.067281776      1.E3                                             0
Switch.   6.73E-02  1.00E+03  0.00E+00  0.00E+00  |  XX0003X0002B.067281776      1.E3                                             0
Switch.   6.73E-02  1.00E+03  0.00E+00  0.00E+00  |  XX0004X0002C.067281776      1.E3                                             0
Switch.   5.98E-02  1.00E+03  0.00E+00  0.00E+00  |  X0001AXX0005.059781776      1.E3                                             0
Permanently-closed switch used for metering.      |  VFUENAIFUENA                                        MEASURING                1
Permanently-closed switch used for metering.      |  VFUENBIFUENB                                        MEASURING                1
Permanently-closed switch used for metering.      |  VFUENCIFUENC                                        MEASURING                1
Permanently-closed switch used for metering.      |  COMPA RSNSHA                                        MEASURING                1
Permanently-closed switch used for metering.      |  COMPB RSNSHB                                        MEASURING                1
Permanently-closed switch used for metering.      |  COMPC RSNSHC                                        MEASURING                1
Blank card ending switches.   KSWTCH = 21.        |BLANK SWITCH
Comment card.   NUMDCD = 221.                     |C < n 1><>< Ampl.  >< Freq.  ><Phase/T0><   A1   ><   T1   >< TSTART >< TSTOP  >
Source.   4.29E+05  5.00E+01  0.00E+00 -1.00E+00  |14VFUENA  428660.705       50.                                     -1.      100.
Source.   4.29E+05  5.00E+01 -1.20E+02 -1.00E+00  |14VFUENB  428660.705       50.     -120.                           -1.      100.
Source.   4.29E+05  5.00E+01 -2.40E+02 -1.00E+00  |14VFUENC  428660.705       50.     -240.                           -1.      100.
Blank card ends electric sources.  KCONST = 3     |BLANK SOURCE
Pi-equivalent branches of distributed circuits are added to the table of List Size 3 between indices  40   and  45.

Sinusoidal steady-state phasor solution, branch by branch.   All flows are away from a bus,  and the real part,  magnitude,  or  "P"
is printed above the imaginary part,  the angle,  or  "Q".   The first solution frequency  =  5.00000000E+01  Hertz.
  Bus K                        Phasor  node  voltage              Phasor  branch  current               Power flow       Power loss
             Bus M         Rectangular            Polar          Rectangular            Polar            P  and  Q        P  and  Q

 IFUENA                    428660.705       428660.705      .42914955848629  .44589061123886      91979.776145585  .10673567800597
                                  0.0              0.0      .12103344018077       15.7500924      -25941.13989823        0.5459725

            SB1A       428660.9089586  428660.90896581      -.4291495584863  .44589061123886      -91979.66940991
                       -2.48691681245       -0.0003324      -.1210334401808     -164.2499076      25941.685870763

 IFUENB                  -214330.3525       428660.705      -.1097567453392  .44589061123468      91979.776144786  .10673567800396
                      -371231.0601341     -120.0000000      -.4321711397581     -104.2499076      -25941.13989776        0.5459725

            SB1B      -214332.6082124  428660.90896581       .1097567453392  .44589061123468      -91979.66940911
                      -371229.9933091     -120.0003324      .43217113975807       75.7500924      25941.685870296

 IFUENC                  -214330.3525       428660.705      -.3193928131433  .44589061123362      91979.776144511  .10673567800347
                      371231.06013415      120.0000000      .31113769957804      135.7500924       -25941.1398979        0.5459725

            SB1C      -214328.3007462  428660.90896581      .31939281314328  .44589061123362      -91979.66940883
                      371232.48022588      119.9996676       -.311137699578      -44.2499076      25941.685870434

 SB1A                  428660.9089586  428660.90896581      .42866090896E-3  .42866090897E-3      91.875087437697  91.875087437697
                       -2.48691681245       -0.0003324      -.2486916812E-8       -0.0003324      .2752857079E-19        0.0000000

            TERRA                 0.0              0.0       -.428660909E-3  .42866090897E-3                  0.0
                                  0.0              0.0      .24869168124E-8      179.9996676                  0.0

 SB1B                 -214332.6082124  428660.90896581      -.2143326082E-3  .42866090897E-3      91.875087437697  91.875087437697
                      -371229.9933091     -120.0003324      -.3712299933E-3     -120.0003324      -.360822483E-15        0.0000000

            TERRA                 0.0              0.0      .21433260821E-3  .42866090897E-3                  0.0
                                  0.0              0.0      .37122999331E-3       59.9996676                  0.0

 SB1C                 -214328.3007462  428660.90896581      -.2143283007E-3  .42866090897E-3      91.875087437697  91.875087437697
                      371232.48022588      119.9996676      .37123248023E-3      119.9996676      -.208166817E-14        0.0000000

            TERRA                 0.0              0.0      .21432830075E-3  .42866090897E-3                  0.0
                                  0.0              0.0      -.3712324802E-3      -60.0003324                  0.0

 RSNSHA               -25.29761633673  171.72823774115      .37719430626528   .3825706954118      .65685055636785  .65685055636785
                      169.85469744861       98.4711803      .06391237993473        9.6169432      32.842527818392       32.8425278

            TERRA                 0.0              0.0      -.3771943062653   .3825706954118                  0.0
                                  0.0              0.0      -.0639123799347     -170.3830568                  0.0

 RSNSHB               159.74729111098  171.72823774115      -.1332474084928   .3825706954118      .65685055636785  .65685055636785
                      -63.01897032151      -21.5288197      -.3586160413559     -110.3830568      32.842527818392       32.8425278

            TERRA                 0.0              0.0      .13324740849284   .3825706954118                  0.0
                                  0.0              0.0      .35861604135594       69.6169432                  0.0

 RSNSHC               -134.4496747743  171.72823774115      -.2439468977724   .3825706954118      .65685055636785  .65685055636785
                      -106.8357271271     -141.5288197      .29470366142122      129.6169432      32.842527818392       32.8425278

            TERRA                 0.0              0.0      .24394689777244   .3825706954118                  0.0
                                  0.0              0.0      -.2947036614212      -50.3830568                  0.0

 RSNNHA               -23.22487326457  149.75408648786       .3284804148519  .33361738152101      .49950577089545  .49950577089545
                      147.94219033683       98.9218270      .05831958771853       10.0675898      24.975288544772       24.9752885

            TERRA                 0.0              0.0      -.3284804148519  .33361738152101                  0.0
                                  0.0              0.0      -.0583195877185     -169.9324102                  0.0

 RSNNHB               139.73413175549  149.75408648786      -.1137339629235  .33361738152101      .49950577089545  .49950577089545
                      -53.85776492162      -21.0781730      -.3136321777667     -109.9324102      24.975288544772       24.9752885

            TERRA                 0.0              0.0      .11373396292346  .33361738152101                  0.0
                                  0.0              0.0      .31363217776666       70.0675898                  0.0

 RSNNHC               -116.5092584909  149.75408648786      -.2147464519284  .33361738152101      .49950577089545  .49950577089545
                      -94.08442541521     -141.0781730      .25531259004813      130.0675898      24.975288544772       24.9752885

            TERRA                 0.0              0.0      .21474645192843  .33361738152101                  0.0
                                  0.0              0.0      -.2553125900481      -49.9324102                  0.0

 X0001B               159.74729096645  171.72823775775       .5939752806E-5    .161850051E-4      .32744298761E-7  .32744298761E-7
                      -63.01897073312      -21.5288198       .1505568752E-4       68.4698302      -.0013897112016       -0.0013897

            TERRA                 0.0              0.0      -.5939752806E-5    .161850051E-4                  0.0
                                  0.0              0.0      -.1505568752E-4     -111.5301698                  0.0

 X0002B               -214332.6082123  428660.90896538      .03498712661363  .04040033886339      .20402342253481  .20402342253481
                      -371229.9933086     -120.0003324      -.0202011967863      -30.0016824      -8659.022987441    -8659.0229874

            TERRA                 0.0              0.0      -.0349871266136  .04040033886339                  0.0
                                  0.0              0.0      .02020119678629      149.9983176                  0.0

 X0001A               -25.29761590799  171.72823775775      .42873660177634  .43625355030085      1.4251536550041  .95158580075E-7
                      169.85469752925       98.4711802      .08063551604209       10.6515917      37.431406063907        0.0000000

            LN1A      -25.29761633673  171.72823774115      -.4287366017763  .43625355030085      -1.425153559845
                      169.85469744861       98.4711803      -.0806355160421     -169.3484083      -37.43140606391

 SB1A                  428660.9089586  428660.90896581      .42869942262769  .44545739329711      91883.191586753  .99216144633E-7
                       -2.48691681245       -0.0003324      .12103344282366       15.7658085      -25941.68587749        0.0000000

            X0002A    428660.90895817  428660.90896538      -.4286994226277  .44545739329711      -91883.19158665
                      -2.486916933483       -0.0003324      -.1210334428237     -164.2341915       25941.68587749

 X0001B               159.74729096645  171.72823775775      -.1445359032459   .4362535429834        1.42515271064  .95158576883E-7
                      -63.01897073312      -21.5288198      -.4116145362332     -109.3484097        37.4314054711              0.0

            LN1B      159.74729111098  171.72823774115      .14453590324592   .4362535429834      -1.425152615481
                      -63.01897032151      -21.5288197      .41161453623317       70.6515903       -37.4314054711

 SB1B                 -214332.6082124  428660.90896581      -.1095468178391  .44546413787033        91885.3928749  .99219150229E-7
                      -371229.9933091     -120.0003324      -.4317844286561     -104.2359808      -25939.20916296              0.0

            X0002B    -214332.6082123  428660.90896538      .10954681783915  .44546413787033       -91885.3928748
                      -371229.9933086     -120.0003324       .4317844286561       75.7640192      25939.209162961

 X0001C               -134.4496750585  171.72823775775       -.284200666556  .43625353808479       1.425150028505  .95158574746E-7
                      -106.8357267961     -141.5288198      .33097904861279      130.6515862        37.4314051523              0.0

            LN1C      -134.4496747743  171.72823774115      .28420066655599  .43625353808479      -1.425149933346
                      -106.8357271271     -141.5288197      -.3309790486128      -49.3484138       -37.4314051523

 SB1C                 -214328.3007462  428660.90896581       -.319181708619  .44548332415531      91888.925790191  .99227690953E-7
                      371232.48022588      119.9996676        .310770701617      135.7649571      -25941.83046705        0.0000000

            X0002C    -214328.3007458  428660.90896538        .319181708619  .44548332415531      -91888.92579009
                      371232.48022557      119.9996676       -.310770701617      -44.2350429       25941.83046705

 XX0005               428660.90895817  428660.90896538                  0.0              0.0                  0.0              0.0
                      -2.486916933483       -0.0003324                  0.0              0.0                  0.0              0.0

            X0002A    428660.90895817  428660.90896538                  0.0              0.0                  0.0
                      -2.486916933483       -0.0003324                  0.0              0.0                  0.0

 XX0003               -214332.6082123  428660.90896538                  0.0              0.0                  0.0              0.0
                      -371229.9933086     -120.0003324                  0.0              0.0                  0.0              0.0

            X0002B    -214332.6082123  428660.90896538                  0.0              0.0                  0.0
                      -371229.9933086     -120.0003324                  0.0              0.0                  0.0

 XX0004               -214328.3007458  428660.90896538                  0.0              0.0                  0.0              0.0
                      371232.48022557      119.9996676                  0.0              0.0                  0.0              0.0

            X0002C    -214328.3007458  428660.90896538                  0.0              0.0                  0.0
                      371232.48022557      119.9996676                  0.0              0.0                  0.0

 X0001A               -25.29761590799  171.72823775775      -.1600848427E-4    .161850051E-4      .32744298761E-7  .32744298761E-7
                      169.85469752925       98.4711802      -.2383866938E-5     -171.5301698      -.0013897112016       -0.0013897

            TERRA                 0.0              0.0      .16008484267E-4    .161850051E-4                  0.0
                                  0.0              0.0      .23838669377E-5        8.4698302                  0.0

 X0001A               -25.29761590799  171.72823775775      -.4286862065741   .4286862412167      5.4370060158812  91885.946704251
                      169.85469752925       98.4711802      .17234161446E-3      179.9769658      -36.40500306032        0.0000000

            X0002A    428660.90895817  428660.90896538      .42868620657407   .4286862412167      91880.509698235
                      -2.486916933483       -0.0003324      -.1723416145E-3       -0.0230342      36.405003060316

 X0001B               159.74729096645  171.72823775775      .21449235550329   .4286862412167      5.4370060158812  91885.946704251
                      -63.01897073312      -21.5288198       .3711669743379       59.9769658      -36.40500306032        0.0000000

            X0002B    -214332.6082123  428660.90896538      -.2144923555033   .4286862412167      91880.509698235
                      -371229.9933086     -120.0003324      -.3711669743379     -120.0230342      36.405003060317

 X0001C               -134.4496750585  171.72823775775      .21419385107078   .4286862412167      5.4370060158812  91885.946704251
                      -106.8357267961     -141.5288198      -.3713393159524      -60.0230342      -36.40500306032        0.0000000

            X0002C    -214328.3007458  428660.90896538      -.2141938510708   .4286862412167      91880.509698235
                      371232.48022557      119.9996676      .37133931595236      119.9769658      36.405003060315

 X0002C               -214328.3007458  428660.90896538      -.0349883129106  .04040033886339      .20402342253477  .20402342253477
                      371232.48022557      119.9996676      -.0201991420597     -150.0016824      -8659.022987441    -8659.0229874

            TERRA                 0.0              0.0      .03498831291059  .04040033886339                  0.0
                                  0.0              0.0      .02019914205968       29.9983176                  0.0

 X0002A               428660.90895817  428660.90896538       .1186296957E-5  .04040033886339      .20402342253458  .20402342253458
                      -2.486916933483       -0.0003324      .04040033884597       89.9983176      -8659.022987441    -8659.0229874

            TERRA                 0.0              0.0      -.1186296957E-5  .04040033886339                  0.0
                                  0.0              0.0       -.040400338846      -90.0016824                  0.0

 X0001C               -134.4496750585  171.72823775775      .10068731461E-4    .161850051E-4      .32744298761E-7  .32744298761E-7
                      -106.8357267961     -141.5288198      -.1267182058E-4      -51.5301698      -.0013897112016       -0.0013897

            TERRA                 0.0              0.0      -.1006873146E-4    .161850051E-4                  0.0
                                  0.0              0.0      .12671820582E-4      128.4698302                  0.0

 X0001A               -25.29761590799  171.72823775775      -.3438956245E-4  .08080545274365      -6.862157258788  .40809507456918
                      169.85469752925       98.4711802      -.0808054454258      -90.0243842      -1.025013175192   -17320.0928984

            X0002A    428660.90895817  428660.90896538      .34389562447E-4  .08080545274365      7.2702523333575
                      -2.486916933483       -0.0003324      .08080544542582       89.9756158      -17319.06788526

 X0001B               159.74729096645  171.72823775775      -.0699623737217  .08080545274365      -6.862157258788  .40809507456964
                      -63.01897073312      -21.5288198      .04043250494761      149.9756158      -1.025013175192   -17320.0928984

            X0002B    -214332.6082123  428660.90896538      .06996237372165  .08080545274365      7.2702523333579
                      -371229.9933086     -120.0003324      -.0404325049476      -30.0243842      -17319.06788526

 X0001C               -134.4496750585  171.72823775775       .0699967632841  .08080545274365      -6.862157258788  .40809507456932
                      -106.8357267961     -141.5288198       .0403729404782       29.9756158      -1.025013175192   -17320.0928984

            X0002C    -214328.3007458  428660.90896538      -.0699967632841  .08080545274365      7.2702523333576
                      371232.48022557      119.9996676      -.0403729404782     -150.0243842      -17319.06788526

 LN1A                 -25.29761633673  171.72823774115      .05154229666816  .05418736990622      .76830154214712  .26879577125168
                      169.85469744861       98.4711803      .01672311907287       17.9758770      4.5888781283179      -20.3864104

            VFF2A     -23.22487326457  149.75408648786      -.3284804148519  .33361738152101      -.4995057708954
                      147.94219033683       98.9218270      -.0583195877185     -169.9324102      -24.97528854477

 LN1B                 159.74729111098  171.72823774115      -.0112885023865  .05418736990622      .76830154214713  .26879577125168
                      -63.01897032151      -21.5288197      -.0529984978205     -102.0241230      4.5888781283179      -20.3864104

            VFF2B     139.73413175549  149.75408648786      .11373396292346  .33361738152101      -.4995057708955
                      -53.85776492162      -21.0781730      .31363217776666       70.0675898      -24.97528854477

 LN1C                 -134.4496747743  171.72823774115      -.0402537942817  .05418736990622      .76830154214713  .26879577125168
                      -106.8357271271     -141.5288197      .03627537874759      137.9758770      4.5888781283179      -20.3864104

            VFF2C     -116.5092584909  149.75408648786      .21474645192844  .33361738152101      -.4995057708954
                      -94.08442541521     -141.0781730      -.2553125900481      -49.9324102      -24.97528854477
     Total network loss  P-loss  by summing injections =   2.759536592850E+05

Output for steady-state phasor switch currents.
      Node-K    Node-M            I-real            I-imag            I-magn          Degrees        Power            Reactive
      LN1A      COMPA         3.77194304E-01    6.39124214E-02    3.82570700E-01       9.6169    6.56854117E-01    3.28425281E+01
      LN1B      COMPB        -1.33247401E-01   -3.58616036E-01    3.82570688E-01    -110.3831    6.56850983E-01    3.28425272E+01
      LN1C      COMPC        -2.43946880E-01    2.94703665E-01    3.82570687E-01     129.6169    6.56849206E-01    3.28425271E+01
      VFF2A     RSNNHA        3.28480415E-01    5.83195877E-02    3.33617382E-01      10.0676    4.99505771E-01    2.49752885E+01
      VFF2B     RSNNHB       -1.13733963E-01   -3.13632178E-01    3.33617382E-01    -109.9324    4.99505771E-01    2.49752885E+01
      VFF2C     RSNNHC       -2.14746452E-01    2.55312590E-01    3.33617382E-01     130.0676    4.99505771E-01    2.49752885E+01
      VFF2A     SE2A              Open              Open              Open             Open          Open              Open
      VFF2B     SE2B              Open              Open              Open             Open          Open              Open
      VFF2C     SE2C              Open              Open              Open             Open          Open              Open
      X0001B    XX0003            Open              Open              Open             Open          Open              Open
      X0001C    XX0004            Open              Open              Open             Open          Open              Open
      XX0005    X0002A            Open              Open              Open             Open          Open              Open
      XX0003    X0002B            Open              Open              Open             Open          Open              Open
      XX0004    X0002C            Open              Open              Open             Open          Open              Open
      X0001A    XX0005            Open              Open              Open             Open          Open              Open
      VFUENA    IFUENA        4.29149558E-01    1.21033440E-01    4.45890611E-01      15.7501    9.19797761E+04   -2.59411399E+04
      VFUENB    IFUENB       -1.09756745E-01   -4.32171140E-01    4.45890611E-01    -104.2499    9.19797761E+04   -2.59411399E+04
      VFUENC    IFUENC       -3.19392813E-01    3.11137700E-01    4.45890611E-01     135.7501    9.19797761E+04   -2.59411399E+04
      COMPA     RSNSHA        3.77194304E-01    6.39124214E-02    3.82570700E-01       9.6169    6.56854117E-01    3.28425281E+01
      COMPB     RSNSHB       -1.33247401E-01   -3.58616036E-01    3.82570688E-01    -110.3831    6.56850983E-01    3.28425272E+01
      COMPC     RSNSHC       -2.43946880E-01    2.94703665E-01    3.82570687E-01     129.6169    6.56849206E-01    3.28425271E+01

Solution at nodes with known voltage.   Nodes that are shorted together by switches are shown as a group of names, with the printed
result applying to the composite group.   The entry "MVA" is  SQRT( P**2 + Q**2 )  in units of power,  while  "P.F."  is the
associated power factor.
              Node                Source  node  voltage             Injected  source  current              Injected  source  power
              name         Rectangular            Polar          Rectangular            Polar            P  and  Q    MVA and P.F.

               VFUENA
              IFUENA       428660.705       428660.705      .42914955848627  .44589061123706      91979.776145582  95567.891882879
                                  0.0              0.0      .12103344017417       15.7500924      -25941.13989682        0.9624548

               VFUENB
              IFUENB     -214330.3525       428660.705      -.1097567453421  .44589061123536      91979.776145089  95567.891882515
                      -371231.0601341     -120.0000000       -.432171139758     -104.2499076      -25941.13989723        0.9624548

               VFUENC
              IFUENC     -214330.3525       428660.705      -.3193928131441  .44589061123305      91979.776144289   95567.89188202
                      371231.06013415      120.0000000      .31113769957636      135.7500924      -25941.13989824        0.9624548

  +++  Node  "COMPC "  has no connected linear branches.  Add (to ground) the conductance  G = 1.00000000E-18  mhos.
  +++  Node  "COMPB "  has no connected linear branches.  Add (to ground) the conductance  G = 1.00000000E-18  mhos.
  +++  Node  "COMPA "  has no connected linear branches.  Add (to ground) the conductance  G = 1.00000000E-18  mhos.
Card of names for time-step loop output.          |  LN1A  LN1B  LN1C  COMPA COMPB COMPC SB1A  SB1B  SB1C  SE2A  SE2B  SE2C  VFF2A
Card of names for time-step loop output.          |  VFF2B VFF2C IFUENAIFUENBIFUENC
Card of names for time-step loop output.          |-5VFF2A VFF2B VFF2B VFF2C VFF2C VFF2A LN1A  LN1B  LN1B  LN1C  LN1C  LN1A
Card of names for time-step loop output.          |-5SB1A  SB1B  SB1B  SB1C  SB1C  SB1A
Blank card ending requests for output variables.  |BLANK OUTPUT

Column headings for the  55   EMTP output variables follow.  These are divided among the 5 possible classes as follows ....
  First  27     output variables are electric-network voltage differences (upper voltage minus lower voltage);
  Next   6     output variables are branch currents (flowing from the upper node to the lower node);
  Next   22     output variables belong to MODELS (with "MODELS" an internally-added upper name of pair).
   Step      Time      LN1A       LN1B       LN1C       COMPA      COMPB      COMPC      SB1A       SB1B       SB1C       SE2A
 

                       SE2B       SE2C       VFF2A      VFF2B      VFF2C      IFUENA     IFUENB     IFUENC     VFF2A      VFF2B
                                                                                                               VFF2B      VFF2C

                       VFF2C      LN1A       LN1B       LN1C       SB1A       SB1B       SB1C       VFUENA     VFUENB     VFUENC
                       VFF2A      LN1B       LN1C       LN1A       SB1B       SB1C       SB1A       IFUENA     IFUENB     IFUENC

                       COMPA      COMPB      COMPC      MODELS     MODELS     MODELS     MODELS     MODELS     MODELS     MODELS
                       RSNSHA     RSNSHB     RSNSHC     ANVOL      LONG       R0F        R1F        X0F        X1F        RDIVX

                       MODELS     MODELS     MODELS     MODELS     MODELS     MODELS     MODELS     MODELS     MODELS     MODELS
                       RINSER     CLOSE1     RPPOS      RPCERO     LPPOS      LPCERO     CPPOS      CPCERO     XP         CR

                       MODELS     MODELS     MODELS     MODELS     MODELS
                       SIMET      ENC1       ENC2       ENC1AS     ENC2AS
 ***      Phasor I(0) =  3.7719430E-01                     Switch  "LN1A  "  to  "COMPA "  closed in the steady-state.
 ***      Phasor I(0) = -1.3324740E-01                     Switch  "LN1B  "  to  "COMPB "  closed in the steady-state.
 ***      Phasor I(0) = -2.4394688E-01                     Switch  "LN1C  "  to  "COMPC "  closed in the steady-state.
 ***      Phasor I(0) =  3.2848041E-01                     Switch  "VFF2A "  to  "RSNNHA"  closed in the steady-state.
 ***      Phasor I(0) = -1.1373396E-01                     Switch  "VFF2B "  to  "RSNNHB"  closed in the steady-state.
 ***      Phasor I(0) = -2.1474645E-01                     Switch  "VFF2C "  to  "RSNNHC"  closed in the steady-state.
 ***      Phasor I(0) =  4.2914956E-01                     Switch  "VFUENA"  to  "IFUENA"  closed in the steady-state.
 ***      Phasor I(0) = -1.0975675E-01                     Switch  "VFUENB"  to  "IFUENB"  closed in the steady-state.
 ***      Phasor I(0) = -3.1939281E-01                     Switch  "VFUENC"  to  "IFUENC"  closed in the steady-state.
 ***      Phasor I(0) =  3.7719430E-01                     Switch  "COMPA "  to  "RSNSHA"  closed in the steady-state.
 ***      Phasor I(0) = -1.3324740E-01                     Switch  "COMPB "  to  "RSNSHB"  closed in the steady-state.
 ***      Phasor I(0) = -2.4394688E-01                     Switch  "COMPC "  to  "RSNSHC"  closed in the steady-state.
      0       0.0  -25.297616 159.747291 -134.44967 -25.297616 159.747291 -134.44967 428660.909 -214332.61  -214328.3        0.0
                          0.0        0.0 -23.224873 139.734132 -116.50926 428660.705 -214330.35 -214330.35 -162.95901  256.24339
                   -93.284385 -185.04491 294.196966 -109.15206 642993.517 -4.3074663 -642989.21 .429149558 -.10975675 -.31939281
                   .377194304  -.1332474 -.24394688        0.0   459.7479   1.077258   1.073736   5.510183   5.492172    .195503
                         440.    .059782    .024236    .294419    .242041   1.127143    .011867    .006306   897.5777   17.95155
                          1.0        1.0        1.0        0.0        0.0
    500     .5E-3  -51.557262 167.638857  -116.0816 -51.557262 167.638857  -116.0816 423383.771 -153620.65 -269763.12        0.0
                          0.0        0.0 -46.082194 146.438982 -100.35679  423383.18 -153618.26 -269764.92 -192.52118  246.79577
                   -54.274594 -219.19612 283.720453 -64.524333 577004.423 116142.465 -693146.89 .404928923 -.04079782  -.3641311
                   .362552316 -.07550699 -.28704532        0.0   459.7479   1.077258   1.073736   5.510183   5.492172    .195503
                         440.    .059782    .024236    .294419    .242041   1.127143    .011867    .006306   897.5777   17.95155
                          1.0        1.0        1.0        0.0        0.0
   1000     .1E-2  -76.547447 171.402629 -94.855182 -76.547447 171.402629 -94.855182 407681.519 -89126.047 -318555.47        0.0
                          0.0        0.0 -67.804818  149.53802 -81.733202 407680.557 -89123.572 -318556.98 -217.34284 231.271222
                   -13.928384 -247.95008 266.257811 -18.307735 496807.566 229429.425 -726236.99 .370740786 .029164081 -.39990487
                   .338983092 -.01590737 -.32307572        0.0   459.7479   1.077258   1.073736   5.510183   5.492172    .195503
                         440.    .059782    .024236    .294419    .242041   1.127143    .011867    .006306   897.5777   17.95155
                          1.0        1.0        1.0        0.0        0.0
   1500     .0015   -99.65276 170.945888 -71.293128  -99.65276 170.945888 -71.293128 381940.796 -22436.862 -359503.93        0.0
                          0.0        0.0 -87.858226 148.955109 -61.096883 381939.485 -22434.368 -359505.12 -236.81333 210.051992
                   26.7613424 -270.59865 242.239016 28.3596323 404377.658 337067.071 -741444.73 .327423927 .098407795 -.42583172
                   .307066972  .04408397 -.35115094        0.0   459.7479   1.077258   1.073736   5.510183   5.492172    .195503
                         440.    .059782    .024236    .294419    .242041   1.127143    .011867    .006306   897.5777   17.95155
                          1.0        1.0        1.0        0.0        0.0
   2000      .002  -120.30428  166.27989 -45.975606 -120.30428  166.27989 -45.975606 346795.422 44804.7928 -391600.21        0.0
                          0.0        0.0 -105.74756 144.704084 -38.956521 346793.795 44807.2448 -391601.04 -250.45165 183.660605
                   66.7910414 -286.58417 212.255495 74.3286788 301990.629 436405.008 -738395.64 .276044796 .165228386 -.44127318
                   .267589846 .102989802 -.37057965        0.0   459.7479   1.077258   1.073736   5.510183   5.492172    .195503
                         440.    .059782    .024236    .294419    .242041   1.127143    .011867    .006306   897.5777   17.95155
                          1.0        1.0        1.0        0.0        0.0
   2500     .0025  -137.99352  157.51953  -19.52601 -137.99352  157.51953  -19.52601 303110.794 110943.205   -414054.        0.0
                          0.0        0.0 -121.03339 136.890136 -15.856748 303108.891 110945.554 -414054.45 -257.92352 152.746884
                   105.176639 -295.51305  177.04554 118.467511 192167.589 524997.204 -717164.79 .217868532 .227980504 -.44584904
                   .221523766 .159359692 -.38088346        0.0   459.7479   1.077258   1.073736   5.510183   5.492172    .195503
                         440.    .059782    .024236    .294419    .242041   1.127143    .011867    .006306   897.5777   17.95155
                          1.0        1.0        1.0        0.0        0.0
   3000      .003   -152.2849  144.88051 7.40439009  -152.2849  144.88051 7.40439009 251962.578 174349.825  -426312.4        0.0
                          0.0        0.0 -133.33898 125.705502 7.63347745 251960.441 174352.016 -426312.46 -259.04448 118.072025
                   140.972457 -297.16541  137.47612 159.689291 77612.7532 600662.227 -678274.98 .154327777 .285118908 -.43944668
                   .170003037 .211805607 -.38180865        0.0   459.7479   1.077258   1.073736   5.510183   5.492172    .195503
                         440.    .059782    .024236    .294419    .242041   1.127143    .011867    .006306   897.5777   17.95155
                          1.0        1.0        1.0        0.0        0.0
   3500     .0035  -162.82651 128.674056 34.1524515 -162.82651 128.674056 34.1524515 194610.197 233463.378 -428073.57        0.0
                          0.0        0.0 -142.36132 111.425584 30.9357396 194607.888 233465.353 -428073.24 -253.78691 80.4898443
                   173.297063 -291.50056 94.5216042 196.978959 -38853.181 661536.952 -622683.77 .086986721 .335236856 -.42222358
                   .114296297 .259036154 -.37333245        0.0   459.7479   1.077258   1.073736   5.510183   5.492172    .195503
                         440.    .059782    .024236    .294419    .242041   1.127143    .011867    .006306   897.5777   17.95155
                          1.0        1.0        1.0        0.0        0.0
   4000      .004   -169.3588 109.299227 60.0595761  -169.3588 109.299227 60.0595761 132465.871 286828.286 -419294.16        0.0
                          0.0        0.0 -147.87826 94.4019977 53.4762619 132463.443 286829.997 -419293.44 -242.28026 40.9257358
                   201.354522 -278.65803 49.2396505 229.418379 -154362.41 706122.442 -551760.03 .017503795 .377100144 -.39460394
                   .055775158 .299888393 -.35566357        0.0   459.7479   1.077258   1.073736   5.510183   5.492172    .195503
                         440.    .059782    .024236    .294419    .242041   1.127143    .011867    .006306   897.5777   17.95155
                          1.0        1.0        1.0        0.0        0.0
   4500     .0045  -171.72092 87.2330851 84.4878354 -171.72092 87.2330851 84.4878354 67059.7962 333130.529 -400190.33        0.0
                          0.0        0.0 -149.75407  75.053978 74.7000906 67057.3081 333131.936 -400189.24 -224.80805 .353887336
                   224.454159 -258.95401 2.74524973 256.208756 -266070.73 733320.855 -467250.12 -.05241009 .409677954 -.35726787
                   -.00411933  .33335638 -.32923707        0.0   459.7479   1.077258   1.073736   5.510183   5.492172    .195503
                         440.    .059782    .024236    .294419    .242041   1.127143    .011867    .006306   897.5777   17.95155
                          1.0        1.0        1.0        0.0        0.0
   5000      .005  -169.85469 63.0189736 106.835719 -169.85469 63.0189736 106.835719 2.48690203 371229.993 -371232.48        0.0
                          0.0        0.0 -147.94221 53.8577776 94.0844336 -.45661E-7  371231.06 -371231.06 -201.79999 -40.226656
                   242.026645 -232.87367 -43.816746 276.690412 -371227.51 742462.474 -371234.97 -.12103344 .432168121 -.31113468
                   -.06391237 .358616026 -.29470366        0.0   459.7479   1.077258   1.073736   5.510183   5.492172    .195503
                         440.    .059782    .024236    .294419    .242041   1.127143    .011867    .006306   897.5777   17.95155
                          1.0        1.0        1.0        0.0        0.0
   5500     .0055  -163.80608 37.2531265 126.552955 -163.80608 37.2531265 126.552955 -67054.884 400188.543 -333133.66        0.0
                          0.0        0.0  -142.4876 31.3354575 111.152146 -67057.308 400189.244 -333131.94 -173.82306 -79.816688
                   253.639749 -201.05921 -89.299829 290.359037 -467243.43 733322.202 -266078.78 -.18667655  .44401688 -.25734033
                    -.1221317 .375045351 -.25291366        0.0   459.7479   1.077258   1.073736   5.510183   5.492172    .195503
                         440.    .059782    .024236    .294419    .242041   1.127143    .011867    .006306   897.5777   17.95155
                          1.0        1.0        1.0        0.0        0.0
   6000      .006  -153.72393 10.5699334 143.153996 -153.72393 10.5699334 143.153996 -132461.14 419293.122 -286831.98        0.0
                          0.0        0.0  -133.5245 8.04156206 125.482935 -132463.44  419293.44   -286830. -141.56606 -117.44137
                   259.007432 -164.29386 -132.58406 296.877925 -551754.26 706125.105 -154370.84 -.24772331 .444932589 -.19720928
                   -.17734372 .382239819 -.20489611        0.0   459.7479   1.077258   1.073736   5.510183   5.492172    .195503
                         440.    .059782    .024236    .294419    .242041   1.127143    .011867    .006306   897.5777   17.95155
                          1.0        1.0        1.0        0.0        0.0
   6500     .0065  -139.85677 -16.373427 156.230195 -139.85677 -16.373427 156.230195 -194605.76 428073.314 -233467.55        0.0
                          0.0        0.0 -121.27358 -15.450338 136.723922 -194607.89  428073.24 -233465.35 -105.82325 -152.17426
                   257.997506 -123.48334 -172.60362 296.086963 -622679.08 661540.863 -38861.785 -.30266994 .434892401 -.13222246
                   -.22818896 .380022274 -.15183331        0.0   459.7479   1.077258   1.073736   5.510183   5.492172    .195503
                         440.    .059782    .024236    .294419    .242041   1.127143    .011867    .006306   897.5777   17.95155
                          1.0        1.0        1.0        0.0        0.0
   7000      .007  -122.54576 -42.913678 165.459437 -122.54576 -42.913678 165.459437 -251958.55  426312.92 -174354.37        0.0
                          0.0        0.0 -106.03622 -38.561956 144.598174 -251960.44 426312.457 -174352.02 -67.474262 -183.16013
                   250.634393  -79.63208 -208.37311 288.005195 -678271.47 600667.291 77604.1774 -.35016388 .414143745 -.06397987
                   -.27341544 .368447321 -.09503189        0.0   459.7479   1.077258   1.073736   5.510183   5.492172    .195503
                         440.    .059782    .024236    .294419    .242041   1.127143    .011867    .006306   897.5777   17.95155
                          1.0        1.0        1.0        0.0        0.0
   7500     .0075   -102.2173 -68.397235 170.614532  -102.2173 -68.397235 170.614532 -303107.28 414055.286 -110948.01        0.0
                          0.0        0.0  -88.18846  -60.72375 148.912211 -303108.89 414054.446 -110945.55  -27.46471 -209.63596
                   237.100671 -33.820062 -239.01177 272.831828 -717162.56 525003.296 192159.268 -.38903566 .383197513 .005838147
                   -.31190951 .347799965 -.03589046        0.0   459.7479   1.077258   1.073736   5.510183   5.492172    .195503
                         440.    .059782    .024236    .294419    .242041   1.127143    .011867    .006306   897.5777   17.95155
                          1.0        1.0        1.0        0.0        0.0
   8000      .008  -79.371891 -92.196634 171.568525 -79.371891 -92.196634 171.568525  -346792.5 391602.238 -44809.739        0.0
                          0.0        0.0 -68.168919 -81.390474 149.559393  -346793.8  391601.04 -44807.245 13.2215555 -230.94987
                   217.728312 12.8247424 -263.76516 250.940416 -738394.74 436411.977 301982.759 -.41832814 .342815711 .075512428
                   -.34272335 .318588632 .024134702        0.0   459.7479   1.077258   1.073736   5.510183   5.492172    .195503
                         440.    .059782    .024236    .294419    .242041   1.127143    .011867    .006306   897.5777   17.95155
                          1.0        1.0        1.0        0.0        0.0
   8500     .0085  -54.572062 -113.72587 168.297927 -54.572062 -113.72587 168.297927 -381938.54 359506.643 22431.8955        0.0
                          0.0        0.0 -46.470841 -100.05309 146.523935 -381939.48 359505.117 22434.3679 53.5822518 -246.57703
                   192.994776 59.1538028 -282.02379  222.86999 -741445.18 337074.747 404370.434 -.43731995 .293992626 .143327321
                   -.36509818 .281532582 .083565601        0.0   459.7479   1.077258   1.073736   5.510183   5.492172    .195503
                         440.    .059782    .024236    .294419    .242041   1.127143    .011867    .006306   897.5777   17.95155
                          1.0        1.0        1.0        0.0        0.0
   9000      .009  -28.428531 -132.45475 160.883285 -28.428531 -132.45475 160.883285 -407679.98   318558.8 89121.1817        0.0
                          0.0        0.0 -23.628494 -116.25207 139.880568 -407680.56 318556.985  89123.572 92.6235802 -256.13264
                   163.509061 104.026224 -293.33804 189.311816 -726238.78 229437.619 496801.164 -.44554355 .237930501 .207613053
                    -.3784831 .237544262 .140938817        0.0   459.7479   1.077258   1.073736   5.510183   5.492172    .195503
                         440.    .059782    .024236    .294419    .242041   1.127143    .011867    .006306   897.5777   17.95155
                          1.0        1.0        1.0        0.0        0.0
   9500     .0095  -1.5849803 -147.92218  149.50716 -1.5849803 -147.92218  149.50716 -423382.99 269766.984 153616.009        0.0
                          0.0        0.0 -.20433289 -129.58855 129.792878 -423383.18 269764.922 153618.258 129.384212 -259.38142
                   129.997211   146.3372 -297.42934 151.092141 -693149.98 116150.974 576999.002 -.44279639 .176009734  .26678666
                   -.38254851 .187706821 .194841685        0.0   459.7479   1.077258   1.073736   5.510183   5.492172    .195503
                         440.    .059782    .024236    .294419    .242041   1.127143    .011867    .006306   897.5777   17.95155
                          1.0        1.0        1.0        0.0        0.0
  10000       .01  25.2976056 -159.74728 134.449672 25.2976056 -159.74728 134.449672 -428660.91 214332.608 214328.301        0.0
                          0.0        0.0  23.224934 -139.73416 116.509224 -428660.71 214330.353 214330.352 162.959092 -256.24338
                   93.2842899 185.044883 -294.19695 109.152066 -642993.52 4.30743342  642989.21 -.42914609 .109755012 .319391082
                    -.3771943 .133247431 .243946878        0.0   459.7479   1.077258   1.073736   5.510183   5.492172    .195503
                         440.    .059782    .024236    .294419    .242041   1.127143    .011867    .006306   897.5777   17.95155
                          1.0        1.0        1.0        0.0        0.0
  10500     .0105  51.5572724 -167.63886 116.081589 51.5572724 -167.63886 116.081589 -423383.77 153620.653 269763.118        0.0
                          0.0        0.0 46.0821598 -146.43896 100.356801 -423383.18 153618.258 269764.922  192.52112 -246.79576
                   54.2746412 219.196134 -283.72045 64.5243169 -577004.42 -116142.47 693146.889 -.40492877 .040797745 .364131024
                   -.36255232 .075507013 .287045297        0.0   459.7479   1.077258   1.073736   5.510183   5.492172    .195503
                         440.    .059782    .024236    .294419    .242041   1.127143    .011867    .006306   897.5777   17.95155
                          1.0        1.0        1.0        0.0        0.0
  11000      .011  76.5474349 -171.40263 94.8551907 76.5474349 -171.40263 94.8551907 -407681.52 89126.0469 318555.472        0.0
                          0.0        0.0 67.8048083 -149.53801 81.7332047 -407680.56  89123.572 318556.985 217.342821 -231.27122
                   13.9283964  247.95006 -266.25782 18.3077559 -496807.57 -229429.43 726236.992 -.37074078 -.02916408 .399904864
                   -.33898309   .0159074 .323075701        0.0   459.7479   1.077258   1.073736   5.510183   5.492172    .195503
                         440.    .059782    .024236    .294419    .242041   1.127143    .011867    .006306   897.5777   17.95155
                          1.0        1.0        1.0        0.0        0.0
  11500     .0115  99.6527946 -170.94591 71.2931198 99.6527946 -170.94591 71.2931198  -381940.8  22436.862 359503.933        0.0
                          0.0        0.0 87.8578534 -148.95493 61.0970799 -381939.48 22434.3679 359505.117 236.812787 -210.05201
                   -26.760774 270.598709 -242.23903 -28.359675 -404377.66 -337067.07 741444.729 -.32742371  -.0984079 .425831613
                   -.30706698 -.04408392 .351150923        0.0   459.7479   1.077258   1.073736   5.510183   5.492172    .195503
                         440.    .059782    .024236    .294419    .242041   1.127143    .011867    .006306   897.5777   17.95155
                          1.0        1.0        1.0        0.0        0.0
  12000      .012   120.30427 -166.27989  45.975621  120.30427 -166.27989  45.975621 -346795.42 -44804.793 391600.215        0.0
                          0.0        0.0 105.747541 -144.70409 38.9565443  -346793.8 -44807.245  391601.04 250.451626 -183.66063
                   -66.790997 286.584161 -212.25551 -74.328649 -301990.63 -436405.01 738395.637 -.27604487 -.16522835 .441273218
                   -.26758985 -.10298977  .37057963        0.0   459.7479   1.077258   1.073736   5.510183   5.492172    .195503
                         440.    .059782    .024236    .294419    .242041   1.127143    .011867    .006306   897.5777   17.95155
                          1.0        1.0        1.0        0.0        0.0
  12500     .0125  137.993508 -157.51953 19.5260263 137.993508 -157.51953 19.5260263 -303110.79  -110943.2 414053.999        0.0
                          0.0        0.0 121.033379 -136.89015 15.8567672 -303108.89 -110945.55 414054.446 257.923525 -152.74691
                   -105.17661 295.513043 -177.04556 -118.46748 -192167.59  -524997.2 717164.793 -.21786852 -.22798051 .445849031
                   -.22152379 -.15935966 .380883447        0.0   459.7479   1.077258   1.073736   5.510183   5.492172    .195503
                         440.    .059782    .024236    .294419    .242041   1.127143    .011867    .006306   897.5777   17.95155
                          1.0        1.0        1.0        0.0        0.0
  13000      .013  152.284887 -144.88052 -7.4043624 152.284887 -144.88052 -7.4043624 -251962.57 -174349.83   426312.4        0.0
                          0.0        0.0 133.338919 -125.70549 -7.6334299 -251960.44 -174352.02 426312.457 259.044409 -118.07206
                   -140.97235 297.165412 -137.47616 -159.68925 -77612.745 -600662.23 678274.972 -.15432762 -.28511899 .439446603
                   -.17000307 -.21180559 .381808648        0.0   459.7479   1.077258   1.073736   5.510183   5.492172    .195503
                         440.    .059782    .024236    .294419    .242041   1.127143    .011867    .006306   897.5777   17.95155
                          1.0        1.0        1.0        0.0        0.0
  13500     .0135  162.826514 -128.67408 -34.152435 162.826514 -128.67408 -34.152435  -194610.2 -233463.38 428073.574        0.0
                          0.0        0.0  142.36133  -111.4256 -30.935728 -194607.89 -233465.35  428073.24 253.786932 -80.489874
                   -173.29706 291.500592 -94.521643 -196.97895  38853.182 -661536.95  622683.77 -.08698665 -.33523689 .422223542
                   -.11429631 -.25903614 .373332456        0.0   459.7479   1.077258   1.073736   5.510183   5.492172    .195503
                         440.    .059782    .024236    .294419    .242041   1.127143    .011867    .006306   897.5777   17.95155
                          1.0        1.0        1.0        0.0        0.0
  14000      .014  169.358717 -109.29921 -60.059509 169.358717 -109.29921 -60.059509 -132465.87 -286828.29 419294.156        0.0
                          0.0        0.0  147.87825  -94.40201  -53.47624 -132463.44   -286830.  419293.44  242.28026 -40.925769
                   -201.35449 278.657926 -49.239699 -229.41823 154362.416 -706122.44 551760.027 -.01750384 -.37710012 .394603962
                   -.05577518 -.29988838 .355663577        0.0   459.7479   1.077258   1.073736   5.510183   5.492172    .195503
                         440.    .059782    .024236    .294419    .242041   1.127143    .011867    .006306   897.5777   17.95155
                          1.0        1.0        1.0        0.0        0.0
  14500     .0145  171.720924 -87.233104 -84.487821 171.720924 -87.233104 -84.487821 -67059.796 -333130.53 400190.325        0.0
                          0.0        0.0 149.753946 -75.053938 -74.700008 -67057.308 -333131.94 400189.244 224.807884  -.3539296
                   -224.45395 258.954028 -2.7452828 -256.20875 266070.734 -733320.85 467250.121  .05241007 -.40967794 .357267874
                   .004119293 -.33335639 .329237079        0.0   459.7479   1.077258   1.073736   5.510183   5.492172    .195503
                         440.    .059782    .024236    .294419    .242041   1.127143    .011867    .006306   897.5777   17.95155
                          1.0        1.0        1.0        0.0        0.0
  % % % % % %   Suspended simulation;  plot data space exhausted;  SPY SPACE is required.   LIMBUF =  840000.
  % % % % % %   Suspended simulation;  plot data space exhausted;  SPY SPACE is required.   LIMBUF =  840000.
  +++  Time-sharing disabled.   Send  user-keyed interrupt to silence alarm.
   Current values.  INDBUF  INDBEG  LIMBUF  MFLUSH  NUMDCD  KCARD1  KCARD2
                    839994      50  840000    1000     230       1     231
Plot timespan now in memory (in sec) = 0.00000000E+00   1.49990000E-02
   ++++  Begin plot-data copy from memory to disk.   MFLUSH, INDBUF, N4, Tbeg,  Tend = 1001  839994       1  -1.00000E+00
1.00000E+19
  15000      .015  169.854701  -63.01899 -106.83571 169.854701  -63.01899 -106.83571 -2.4870179 -371229.99  371232.48        0.0
                          0.0        0.0 147.942193 -53.857785 -94.084408 -.61533E-6 -371231.06  371231.06 201.799978 40.2266227
                    -242.0266 232.873691 43.8167208 -276.69041 371227.506 -742462.47 371234.967 .121033437 -.43216812 .311134683
                   .063912355 -.35861603 .294703676        0.0   459.7479   1.077258   1.073736   5.510183   5.492172    .195503
                         440.    .059782    .024236    .294419    .242041   1.127143    .011867    .006306   897.5777   17.95155
                          1.0        1.0        1.0        0.0        0.0
  15500     .0155  163.806089 -37.253142 -126.55295 163.806089 -37.253142 -126.55295 67054.8838 -400188.54 333133.659        0.0
                          0.0        0.0 142.487598 -31.335471 -111.15213 67057.3081 -400189.24 333131.936 173.823069 79.8166568
                   -253.63973 201.059231 89.2998061 -290.35904 467243.427  -733322.2 266078.775 .186676567 -.44401689  .25734032
                   .122131683 -.37504537 .252913683        0.0   459.7479   1.077258   1.073736   5.510183   5.492172    .195503
                         440.    .059782    .024236    .294419    .242041   1.127143    .011867    .006306   897.5777   17.95155
                          1.0        1.0        1.0        0.0        0.0
  16000      .016  153.724031 -10.569996 -143.15404 153.724031 -10.569996 -143.15404 132461.141 -419293.12 286831.982        0.0
                          0.0        0.0 133.524496 -8.0415684 -125.48293 132463.443 -419293.44 286829.997 141.566065  117.44136
                   -259.00742 164.294028 132.584039 -296.87807 551754.263  -706125.1 154370.842 .247723071 -.44493247 .197209398
                   .177343706 -.38223984 .204896113        0.0   459.7479   1.077258   1.073736   5.510183   5.492172    .195503
                         440.    .059782    .024236    .294419    .242041   1.127143    .011867    .006306   897.5777   17.95155
                          1.0        1.0        1.0        0.0        0.0
  16500     .0165  139.856779 16.3734161  -156.2302 139.856779 16.3734161  -156.2302 194605.764 -428073.31 233467.549        0.0
                          0.0        0.0 121.273599 15.4503286 -136.72393 194607.888 -428073.24 233465.353  105.82327 152.174256
                   -257.99753 123.483363 172.603611 -296.08697 622679.078 -661540.86  38861.785 .302669828 -.43489235 .132222518
                   .228188947  -.3800223 .151833326        0.0   459.7479   1.077258   1.073736   5.510183   5.492172    .195503
                         440.    .059782    .024236    .294419    .242041   1.127143    .011867    .006306   897.5777   17.95155
                          1.0        1.0        1.0        0.0        0.0
  17000      .017  122.545686 42.9137124  -165.4594 122.545686 42.9137124  -165.4594 251958.548 -426312.92 174354.371        0.0
                          0.0        0.0  106.03651 38.5618024 -144.59831 251960.441 -426312.46 174352.016 67.4747076 183.160115
                   -250.63482 79.6319735 208.373111 -288.00508 678271.468 -600667.29 -77604.177 .350163812 -.41414371 .063979899
                   .273415434 -.36844734 .095031918        0.0   459.7479   1.077258   1.073736   5.510183   5.492172    .195503
                         440.    .059782    .024236    .294419    .242041   1.127143    .011867    .006306   897.5777   17.95155
                          1.0        1.0        1.0        0.0        0.0
  17500     .0175  102.217326  68.397228 -170.61455 102.217326  68.397228 -170.61455 303107.277 -414055.29 110948.009        0.0
                          0.0        0.0 88.1884787 60.7237441 -148.91222 303108.891 -414054.45 110945.554 27.4647346 209.635967
                    -237.1007 33.8200978 239.011782 -272.83188 717162.563  -525003.3 -192159.27 .389035634  -.3831975 -.00583813
                   .311909514     -.3478 .035890474        0.0   459.7479   1.077258   1.073736   5.510183   5.492172    .195503
                         440.    .059782    .024236    .294419    .242041   1.127143    .011867    .006306   897.5777   17.95155
                          1.0        1.0        1.0        0.0        0.0
  18000      .018  79.3718987 92.1966413 -171.56854 79.3718987 92.1966413 -171.56854 346792.498 -391602.24 44809.7394        0.0
                          0.0        0.0 68.1689371 81.3904738 -149.55941 346793.795 -391601.04 44807.2448 -13.221537 230.949885
                   -217.72835 -12.824743 263.765181 -250.94044 738394.736 -436411.98 -301982.76 .418328138 -.34281571 -.07551243
                   .342723359 -.31858866 -.02413469        0.0   459.7479   1.077258   1.073736   5.510183   5.492172    .195503
                         440.    .059782    .024236    .294419    .242041   1.127143    .011867    .006306   897.5777   17.95155
                          1.0        1.0        1.0        0.0        0.0
  18500     .0185  54.5720999 113.725853 -168.29795 54.5720999 113.725853 -168.29795 381938.538 -359506.64 -22431.895        0.0
                          0.0        0.0 46.4708808 100.053087 -146.52397 381939.485 -359505.12 -22434.368 -53.582206 246.577054
                   -192.99485 -59.153753 282.023806 -222.87005  741445.18 -337074.75 -404370.43 .437319972 -.29399264 -.14332733
                   .365098203 -.28153261  -.0835656        0.0   459.7479   1.077258   1.073736   5.510183   5.492172    .195503
                         440.    .059782    .024236    .294419    .242041   1.127143    .011867    .006306   897.5777   17.95155
                          1.0        1.0        1.0        0.0        0.0
  19000      .019  28.4285437 132.454763 -160.88331 28.4285437 132.454763 -160.88331 407679.982  -318558.8 -89121.182        0.0
                          0.0        0.0 23.6285015 116.252089 -139.88059 407680.557 -318556.98 -89123.572 -92.623588  256.13268
                   -163.50909 -104.02622  293.33807 -189.31185 726238.783 -229437.62 -496801.16 .445543564 -.23793051 -.20761306
                   .378483117 -.23754431 -.14093883        0.0   459.7479   1.077258   1.073736   5.510183   5.492172    .195503
                         440.    .059782    .024236    .294419    .242041   1.127143    .011867    .006306   897.5777   17.95155
                          1.0        1.0        1.0        0.0        0.0
  19500     .0195  1.58497336 147.922196 -149.50717 1.58497336 147.922196 -149.50717 423382.992 -269766.98 -153616.01        0.0
                          0.0        0.0 .204334617 129.588562  -129.7929  423383.18 -269764.92 -153618.26 -129.38423 259.381458
                   -129.99723 -146.33722 297.429365 -151.09214 693149.975 -116150.97   -576999. .442796494 -.17600978 -.26678671
                   .382548526 -.18770684 -.19484168        0.0   459.7479   1.077258   1.073736   5.510183   5.492172    .195503
                         440.    .059782    .024236    .294419    .242041   1.127143    .011867    .006306   897.5777   17.95155
                          1.0        1.0        1.0        0.0        0.0
  20000       .02  -25.297589 159.747291  -134.4497 -25.297589 159.747291  -134.4497 428660.909 -214332.61  -214328.3        0.0
                          0.0        0.0 -23.224858 139.734135 -116.50928 428660.705 -214330.35 -214330.35 -162.95899 256.243412
                   -93.284419 -185.04488 294.196992 -109.15211 642993.517 -4.3074336 -642989.21 .429146095 -.10975501 -.31939108
                   .377194318 -.13324744 -.24394689        0.0   459.7479   1.077258   1.073736   5.510183   5.492172    .195503
                         440.    .059782    .024236    .294419    .242041   1.127143    .011867    .006306   897.5777   17.95155
                          1.0        1.0        1.0        0.0        0.0
  20500     .0205  -51.557278 167.638886 -116.08161 -51.557278 167.638886 -116.08161 423383.771 -153620.65 -269763.12        0.0
                          0.0        0.0 -46.082182 146.438991 -100.35681  423383.18 -153618.26 -269764.92 -192.52117 246.795799
                   -54.274626 -219.19616 283.720494  -64.52433 577004.424 116142.465 -693146.89 .404928771 -.04079775 -.36413102
                   .362552334 -.07550702 -.28704531        0.0   459.7479   1.077258   1.073736   5.510183   5.492172    .195503
                         440.    .059782    .024236    .294419    .242041   1.127143    .011867    .006306   897.5777   17.95155
                          1.0        1.0        1.0        0.0        0.0
  21000      .021   -76.54744 171.402645 -94.855205  -76.54744 171.402645 -94.855205 407681.519 -89126.047 -318555.47        0.0
                          0.0        0.0 -67.804798 149.538023 -81.733225 407680.557 -89123.572 -318556.98 -217.34282 231.271249
                   -13.928428 -247.95009  266.25785 -18.307765 496807.566 229429.425 -726236.99 .370740771 .029164088 -.39990486
                   .338983107  -.0159074 -.32307572        0.0   459.7479   1.077258   1.073736   5.510183   5.492172    .195503
[...]
                         440.    .059782    .024236    .294419    .242041   1.127143    .011867    .006306   897.5777   17.95155
                          1.0        1.0        1.0        0.0        0.0
 113000      .113  -241896.77 -190987.06 432883.831 -241896.77 -190987.06 432883.831 -241896.78 -190987.06 432883.832        0.0
                          0.0        0.0 -215627.01 -21840.143 237467.151 -251960.44 -174352.02 426312.457 -193786.87 -259307.29
                   453094.159 -50909.716 -623870.89 674780.604 -50909.721 -623870.89 674780.609 -1630.6115 945.272993 685.338484
                   -1178.1619 1004.95578 173.206106        0.0   459.7479   1.077258   1.073736   5.510183   5.492172    .195503
                         440.    .059782    .024236    .294419    .242041   1.127143    .011867    .006306   897.5777   17.95155
                          1.0        1.0        1.0        0.0        0.0
 113500     .1135   -188881.6 -258272.68 447154.278  -188881.6 -258272.68 447154.278  -188881.6 -258272.68  447154.28        0.0
                          0.0        0.0 -182007.69 -146052.87 328060.558 -194607.89 -233465.35  428073.24 -35954.817 -474113.43
                   510068.245  69391.086 -705426.96 636035.873 69391.0815 -705426.96 636035.879 -1657.6904 589.483106 1068.20729
                   -1251.7066  934.46465 317.241945        0.0   459.7479   1.077258   1.073736   5.510183   5.492172    .195503
                         440.    .059782    .024236    .294419    .242041   1.127143    .011867    .006306   897.5777   17.95155
                          1.0        1.0        1.0        0.0        0.0
 114000      .114  -133049.82  -271431.1 404480.921 -133049.82  -271431.1 404480.921 -133049.83  -271431.1 404480.923        0.0
                          0.0        0.0 -131216.25 -281937.62 413153.871 -132463.44   -286830.  419293.44 150721.369 -695091.49
                   544370.122 138381.276 -675912.02 537530.744 138381.271 -675912.02 537530.749 -1698.8169 791.805082 907.011777
                   -1303.9105  837.66516 466.245365        0.0   459.7479   1.077258   1.073736   5.510183   5.492172    .195503
                         440.    .059782    .024236    .294419    .242041   1.127143    .011867    .006306   897.5777   17.95155
                          1.0        1.0        1.0        0.0        0.0
 114500     .1145  -64500.315 -326937.17 391437.482 -64500.315 -326937.17 391437.482 -64500.319 -326937.17 391437.484        0.0
                          0.0        0.0 -61025.549 -353133.31 414158.855 -67057.308 -333131.94 400189.244 292107.756 -767292.16
                   475184.404 262436.851 -718374.65 455937.797 262436.847 -718374.65 455937.803 -1674.4879 384.487447 1290.00043
                   -1334.4161 731.261492 603.154605        0.0   459.7479   1.077258   1.073736   5.510183   5.492172    .195503
                         440.    .059782    .024236    .294419    .242041   1.127143    .011867    .006306   897.5777   17.95155
                          1.0        1.0        1.0        0.0        0.0
 115000      .115  -821.44175 -380883.25 381704.688 -821.44175 -380883.25 381704.688   -821.445 -380883.25  381704.69        0.0
                          0.0        0.0 2304.14233 -442699.64 440395.498 .127058E-4 -371231.06  371231.06 445003.783 -883095.14
                   438091.356 380061.805 -762587.93  382526.13   380061.8 -762587.94 382526.135 -1625.4845 514.760872 1110.72367
                   -1341.9427 603.889091 738.053578        0.0   459.7479   1.077258   1.073736   5.510183   5.492172    .195503
                         440.    .059782    .024236    .294419    .242041   1.127143    .011867    .006306   897.5777   17.95155
                          1.0        1.0        1.0        0.0        0.0
 115500     .1155  81798.4456 -395719.75 313921.306 81798.4456 -395719.75 313921.306 81798.4424 -395719.75 313921.308        0.0
                          0.0        0.0 72319.6279 -408110.19 335790.559 67057.3081 -400189.24 333131.936 480429.815 -743900.75
                   263470.932 477518.197 -709641.06  232122.86 477518.192 -709641.06 232122.865 -1618.5028 701.487662  917.01509
                   -1325.4635  464.39625 861.067274        0.0   459.7479   1.077258   1.073736   5.510183   5.492172    .195503
                         440.    .059782    .024236    .294419    .242041   1.127143    .011867    .006306   897.5777   17.95155
                          1.0        1.0        1.0        0.0        0.0
 116000      .116  127402.266 -419225.24 291822.978 127402.266 -419225.24 291822.978 127402.263 -419225.24  291822.98        0.0
                          0.0        0.0 129117.415 -477311.27 348193.859 132463.443 -419293.44 286829.997  606428.69 -825505.13
                   219076.444 546627.511 -711048.22 164420.712 546627.506 -711048.22 164420.717 -1624.4936 729.276118 895.217443
                   -1285.6847 318.819682 966.865014        0.0   459.7479   1.077258   1.073736   5.510183   5.492172    .195503
                         440.    .059782    .024236    .294419    .242041   1.127143    .011867    .006306   897.5777   17.95155
                          1.0        1.0        1.0        0.0        0.0
 116500     .1165  197229.163 -393833.83 196604.665 197229.163 -393833.83 196604.665  197229.16 -393833.83 196604.667        0.0
                          0.0        0.0 197955.506 -376997.26 179041.759 194607.888 -428073.24 233465.353 574952.771 -556039.02
                   -18913.748 591062.992 -590438.49 -624.49808 591062.988 -590438.49 -624.49302  -1593.901 653.165114 940.735865
                   -1224.1505 170.076267  1054.0742        0.0   459.7479   1.077258   1.073736   5.510183   5.492172    .195503
                         440.    .059782    .024236    .294419    .242041   1.127143    .011867    .006306   897.5777   17.95155
                          1.0        1.0        1.0        0.0        0.0
 117000      .117  255782.028 -442462.62 186680.593 255782.028 -442462.62 186680.593 255782.025 -442462.62 186680.595        0.0
                          0.0        0.0 247327.451 -335261.91 87934.4551 251960.441 -426312.46 174352.016 582589.356 -423196.36
                     -159393. 698244.648 -629143.21 -69101.435 698244.644 -629143.22 -69101.429 -1521.3379 357.980661 1163.35726
                    -1142.423 23.4115094 1119.01145        0.0   459.7479   1.077258   1.073736   5.510183   5.492172    .195503
                         440.    .059782    .024236    .294419    .242041   1.127143    .011867    .006306   897.5777   17.95155
                          1.0        1.0        1.0        0.0        0.0
 117500     .1175  304742.246 -420095.13 115352.887 304742.246 -420095.13 115352.887 304742.243 -420095.13 115352.889        0.0
                          0.0        0.0  278880.07 -275140.43 -3739.6449 303108.891 -414054.45 110945.554 554020.495 -271400.78
                   -282619.71 724837.378 -535448.02 -189389.36 724837.375 -535448.02 -189389.35 -1415.8928 293.161865 1122.73094
                   -1042.3843  -123.1436 1165.52794        0.0   459.7479   1.077258   1.073736   5.510183   5.492172    .195503
                         440.    .059782    .024236    .294419    .242041   1.127143    .011867    .006306   897.5777   17.95155
                          1.0        1.0        1.0        0.0        0.0
 118000      .118  342572.206  -384882.7 42310.4957 342572.206  -384882.7 42310.4957 342572.203  -384882.7  42310.499        0.0
                          0.0        0.0 292360.203 -261944.36 -30415.848 346793.795 -391601.04 44807.2447 554304.558 -231528.51
                   -322776.05 727454.907  -427193.2 -300261.71 727454.905  -427193.2  -300261.7 -1315.9932 -323.62684 1639.62002
                   -926.02485 -256.28495 1182.30983        0.0   459.7479   1.077258   1.073736   5.510183   5.492172    .195503
                         440.    .059782    .024236    .294419    .242041   1.127143    .011867    .006306   897.5777   17.95155
                          1.0        1.0        1.0        0.0        0.0
 118500     .1185  386054.439 -331827.74 -54226.696 386054.439 -331827.74 -54226.696 386054.437 -331827.74 -54226.693        0.0
                          0.0        0.0 323378.332 -230610.18 -92768.155 381939.485 -359505.12 -22434.368 553988.509 -137842.02
                   -416146.49 717882.182 -277601.05 -440281.14 717882.181 -277601.05 -440281.13 -1142.6245 -684.94182 1827.56629
                   -797.18071 -382.38532 1179.56604        0.0   459.7479   1.077258   1.073736   5.510183   5.492172    .195503
                         440.    .059782    .024236    .294419    .242041   1.127143    .011867    .006306   897.5777   17.95155
                          1.0        1.0        1.0        0.0        0.0
 119000      .119  395629.374 -292842.34 -102787.04 395629.374 -292842.34 -102787.04 395629.372 -292842.34 -102787.03        0.0
                          0.0        0.0 336594.408 -206558.37 -130036.04 407680.557 -318556.98 -89123.572 543152.779 -76522.335
                   -466630.44  688471.71  -190055.3 -498416.41  688471.71  -190055.3 -498416.41 -930.34048 -978.08201 1908.42249
                   -658.63236 -495.99585 1154.62825        0.0   459.7479   1.077258   1.073736   5.510183   5.492172    .195503
                         440.    .059782    .024236    .294419    .242041   1.127143    .011867    .006306   897.5777   17.95155
                          1.0        1.0        1.0        0.0        0.0
 119500     .1195  419943.555 -284248.64 -135694.91 419943.555 -284248.64 -135694.91 419943.553 -284248.65 -135694.91        0.0
                          0.0        0.0 345145.523 -250166.68 -94978.844  423383.18 -269764.92 -153618.26 595312.203 -155187.84
                   -440124.37   704192.2 -148553.74 -555638.46   704192.2 -148553.74 -555638.46 -706.05031 -848.43111 1554.48142
                   -513.49212 -598.63242 1112.12452        0.0   459.7479   1.077258   1.073736   5.510183   5.492172    .195503
                         440.    .059782    .024236    .294419    .242041   1.127143    .011867    .006306   897.5777   17.95155
                          1.0        1.0        1.0        0.0        0.0
  % % % % % %   Suspended simulation;  plot data space exhausted;  SPY SPACE is required.   LIMBUF =  840000.
  % % % % % %   Suspended simulation;  plot data space exhausted;  SPY SPACE is required.   LIMBUF =  840000.
  +++  Time-sharing disabled.   Send  user-keyed interrupt to silence alarm.
   Current values.  INDBUF  INDBEG  LIMBUF  MFLUSH  NUMDCD  KCARD1  KCARD2
                    839994      50  840000    1007     230       1     231
Plot timespan now in memory (in sec) = 1.04985997E-01   1.19985000E-01
   ++++  Begin plot-data copy from memory to disk.   MFLUSH, INDBUF, N4, Tbeg,  Tend = 1008  839994       1  -1.00000E+00
1.00000E+19
 120000       .12  422603.615 -204467.71 -218135.91 422603.615 -204467.71 -218135.91 422603.614 -204467.71  -218135.9        0.0
                          0.0        0.0 361715.601 -293365.13 -68350.475 428660.705 -214330.35 -214330.35 655080.727 -225014.65
                   -430066.08 627071.324 13668.1965 -640739.52 627071.325 13668.1914 -640739.52 -506.75103 -1016.4346 1523.18561
                   -364.89784 -679.13607 1044.03391        0.0   459.7479   1.077258   1.073736   5.510183   5.492172    .195503
                         440.    .059782    .024236    .294419    .242041   1.127143    .011867    .006306   897.5777   17.95155
                          1.0        1.0        1.0        0.0        0.0

Extrema of output variables follow.   Order and column positioning are the same as for the preceding time-step loop output.
Variable maxima :  449169.055 468667.348 544371.946 449169.055 468667.348 544371.946 449169.053 468667.348 544371.947        0.0
                          0.0        0.0 412721.701 674666.706 631774.061 428660.705 428660.703 428660.703 965242.542 .1161471E7
                   962948.324 826373.696 825310.687 785332.827 826373.693 825310.687 785332.831 633.724959 2383.29464 2754.82665
                   511.086227 1153.86608 1272.98435        0.0   459.7479   1.077258   1.073736   5.510183   5.492172    .195503
                         440.    .059782    .024236    .294419    .242041   1.127143    .011867    .006306   897.5777   17.95155
                          1.0        1.0        1.0        0.0        0.0
Times of maxima :     .079339    .087485    .073014    .079339    .087485    .073014    .079339    .087485    .073014        0.0
                          0.0        0.0    .100149    .086322    .071879        0.0    .006667    .113333    .077867    .086295
                      .071828      .0788    .084337    .070972      .0788    .084337    .070972    .060629    .073318    .076214
                      .104999    .071545    .078281        0.0        0.0        0.0        0.0        0.0        0.0        0.0
                          0.0        0.0        0.0        0.0        0.0        0.0        0.0        0.0        0.0        0.0
                          0.0        0.0        0.0        0.0        0.0
Variable minima :  -447645.13 -470247.13 -455257.08 -447645.13 -470247.13 -455257.08 -447645.14 -470247.12 -464768.85        0.0
                          0.0        0.0 -393184.91 -680371.04  -571516.3 -428660.71  -428660.7  -428660.7 -867690.67 -.109539E7
                   -942457.23 -794458.67 -850032.81 -803791.59 -794458.67 -850032.81 -872704.96 -2145.7948 -1994.8223 -1307.0105
                   -1476.8509 -781.66889 -683.13122        0.0   459.7479   1.077258   1.073736   5.510183   5.492172    .195503
                         440.    .059782    .024236    .294419    .242041   1.127143    .011867    .006306   897.5777   17.95155
                          1.0        1.0        1.0        0.0        0.0
Times of minima :     .070971    .075719    .084332    .070971    .075719    .084332    .070971    .075719     .06259        0.0
                          0.0        0.0    .069598    .077629    .080531        .01    .016667    .103333    .086326    .077609
                      .080647    .087617    .073018    .081692    .087617    .073018    .062589    .075297    .081972    .067622
                      .074877    .101547    .108428        0.0        0.0        0.0        0.0        0.0        0.0        0.0
                          0.0        0.0        0.0        0.0        0.0        0.0        0.0        0.0        0.0        0.0
                          0.0        0.0        0.0        0.0        0.0

Blank card terminating all plot cards.            |BLANK PLOT

Memory storage figures for the preceding, now-completed data case.  -------------------------------  Present   Program
A value of  "-9999"  indicates that no figure is available.         28-Feb-22  20:04:02              figure     limit  (name)
     Size List 1.   Number of electric network nodes.                                                   37      6000  (LBUS)
     Size List 2.   Number of electric network branches.                                                39     10000  (LBRNCH)
     Size List 3.   Number of data values in R, L, C tables.                                            45    192000  (LDATA)
     Size List 4.   Number of electric network sources.                                                  3       900  (LEXCT)
     Size List 5.   Storage for [Y] and triangularized [Y].   No. times =    3     Factors =    66     189    420000  (LYMAT)
     Size List 6.   Number of entries in switch table.                  No. flops = 18                  21      1200  (LSWTCH)
     Size List 7.   Number of distinct ALPHANUMERIC data names plus program SPY variables.              25     15000  (LSIZE7)
     Size List 8.   History points of distributed lines.                                              4973    120000  (LPAST)
     Size List 9.   Number of nonlinear elements.                                                        0      2250  (LNONL)
     Size List 10.  Points of nonlinear characteristics.                                                 0      3800  (LCHAR)
     Size List 11.  Number of Type-59 S.M. outputs.                                                      0       720  (LSMOUT)
     Size List 12.  Total number of EMTP output variables.                                              55      2000  (LSIZ12)
     Size List 13.  Working space for batch/SPY plotting.                                            -9999     72800  (LSIZ13)
     Size List 14.  S.M./U.M. connections to TACS.                                                   -9999       510  (LBSTAC)
     Size List 15.  Character storage in bytes for MODELS.                                            3297     90000  (LCTACS)
     Size List 16.  Total number of Type-59 S.M. masses.                                                 0       800  (LIMASS)
     Size List 17.  Number of Type-59 Synchronous machines.                                              0        90  (LSYN)
     Size List 18.  Branch and switch power/energy outputs.                                              0       254  (MAXPE)
     Size List 19.  Total floating-point TACS table space.                                              23    120000  (LTACST)
     Size List 20.  Non-copied recursive convolution data.                                               0    100000  (LFSEM)
     Size List 21.  Total modal/phase [T] matrix storage.                                                9      3000  (LFD)
     Size List 22.  Total recursive convolution history.                                                 0     15000  (LHIST)
     Size List 23.  Giant vectors for renumbering, phasors;  also extrema accumulation.                  93    192000  (LSIZ23)
     Size List 24.  Peak phases of compensation for data.                                                0       120  (LCOMP)
     Size List 25.  Total table space for all U.M usage.                                             -9999     45000  (LSPCUM)
     Size List 26.  Square of max number of coupled phases.                                              9    260000  (LSIZ26)
     Size List 27.  Maximum number of MODELS top variables.                                             44       600  (LSIZ27)
     Size List 28.  MODELS.  Total work space is divided into INTEGER and REAL.  1st, REAL:           1780    210000  (LRTACS)
                             Second  and last,  statistics for INTEGER work space.                    6838         0  (LITACS)
     Size List 29.  RAM disk used by "TAPSAV" table saving (limit is "LABCOM" size LTLABL).          -9999       600  (LSIZ29)
     Size List 30.  Taku Noda frequency-dependent circuits.                                              0        19  (LSIZ30)
Timing figures characterizing central processor (CP) solution speed.  ----------------------------   CP sec  Wait sec  Real sec
     Data input time (through blank card ending branches) ....                                       0.000     0.000     0.000
     Node renumbering and phasor solution  ....                                                      0.016     0.000     0.016
     After phasor solution, but before time-step loop  ....                                          0.000     0.000     0.000
     Integration of equations (time-step loop)  ....                                                 1.125     0.000     1.125
     Plotting or STATISTICS termination overlays ....                                                0.000     0.000     0.000
                                                                                                    ---------------------------
                                                                                          Totals      1.141     0.000     1.141

