   ---   236   cards of disk file read into card cache cells  1   onward.
 Comment card is ignored.      |C   LBUS  LBRNCH   LDATA   LEXCT   LYMAT  LSWTCH
 Limit CIDEAL cards =   200    |CARDS        200 { Limit of CIDEAL will be 2 mor
 1st card (Lists  1-10).       |    6000   10000  192000     900  420000    120
 Comment card is ignored.      |C LSMOUT  LSIZ12  LSIZ13  LBSTAC  LCTACS  LIMASS
 2nd card (Lists 11-20).       |     720    2000   72800     510   90000     80
 Comment card is ignored.      |C    LFD   LHIST  LSIZ23   NCOMP  LSPCUM  LSIZ26
 3rd card (Lists 21-30).       |    3000   15000  192000     120   45000  26000
 4th card (Lists 31-32).       |     200     300     { Optional card for Lists
 Comment card is ignored.      |C  LWORK  LMARTI
 Supplemental offsets.         |  840000     742
 <===> Done with  "/"-card sorting by data class.    Remember that the source file appears different from interpreted input data.
Alternative Transients Program (ATP),  GNU Linux or DOS.  All rights reserved by Can/Am user group of Portland, Oregon, USA.
 Date (dd-mth-yy) and time of day (hh.mm.ss) = 28-Feb-22  19:50:54   Name of disk plot file is  draw6.3\bernal\energizacion3411.pl4
Consult the 860-page ATP Rule Book of the Can/Am EMTP User Group in Portland,  Oregon, USA.  Source code date is 12 August 2008.
Total size of LABCOM tables = 10913436 INTEGER words.  31 VARDIM  List Sizes follow:  6002  10K  192K  900  420K  1200  15K
  120K  2250  3800  720  2K  72800  510  90K  800  90  254  120K  100K  3K  15K  192K  120  45K  260K  600  210K  1100  60  200
--------------------------------------------------+--------------------------------------------------------------------------------
Descriptive interpretation of input data cards.   |  Input data card images are shown below, all 80 columns, character by character
                                                  0         1         2         3         4         5         6         7         8
                                                  012345678901234567890123456789012345678901234567890123456789012345678901234567890
--------------------------------------------------+--------------------------------------------------------------------------------
Comment card.   NUMDCD = 1.                       |C data:C:\ATP\ATPDRAW6.3\BERNAL\ENERGIZACION3411.ATP
Marker card preceding new EMTP data case.         |BEGIN NEW DATA CASE
Comment card.   NUMDCD = 3.                       |C --------------------------------------------------------
Comment card.   NUMDCD = 4.                       |C Generated by ATPDRAW  febrero, lunes 28, 2022
Comment card.   NUMDCD = 5.                       |C A Bonneville Power Administration program
Comment card.   NUMDCD = 6.                       |C by H. K. Høidalen at SEfAS/NTNU - NORWAY 1994-2016
Comment card.   NUMDCD = 7.                       |C --------------------------------------------------------
Comment card.   NUMDCD = 8.                       |C  dT  >< Tmax >< Xopt >< Copt ><Epsiln>
Misc. data.     1.000E-06   1.200E-01   5.000E+01 |   1.E-6     .12     50.
Misc. data.    500    1  0  1  1  0  0  0  0  0   |     500       1       0       1       1       0       0       0       0
  ///  Warning.  Nonzero XOPT or COPT differs from the power frequency of  6.00000000E+01  Hz.   Did the user really want this?
No TACS data,  but MODELS data begins (next).     |MODELS
      Another ordinary MODELS data card.          |OUTPUT
      Another ordinary MODELS data card.          |  AnVol
      Another ordinary MODELS data card.          |  LONG
      Another ordinary MODELS data card.          |  R0F
      Another ordinary MODELS data card.          |  R1F
      Another ordinary MODELS data card.          |  X0F
      Another ordinary MODELS data card.          |  X1F
      Another ordinary MODELS data card.          |  RDIVX
      Another ordinary MODELS data card.          |  RINSER
      Another ordinary MODELS data card.          |  CLOSE1
      Another ordinary MODELS data card.          |  RPpos
      Another ordinary MODELS data card.          |  RPcero
      Another ordinary MODELS data card.          |  LPpos
      Another ordinary MODELS data card.          |  LPcero
      Another ordinary MODELS data card.          |  CPpos
      Another ordinary MODELS data card.          |  CPcero
      Another ordinary MODELS data card.          |  Xp
      Another ordinary MODELS data card.          |  CR
      Another ordinary MODELS data card.          |  SIMET
      Another ordinary MODELS data card.          |  ENC1
      Another ordinary MODELS data card.          |  ENC2
      Another ordinary MODELS data card.          |  ENC1AS
      Another ordinary MODELS data card.          |  ENC2AS
      Another ordinary MODELS data card.          |MODEL DEFAULT
      Another ordinary MODELS data card.          |DATA AnVol,LONG,R0F,R1F,X0F,X1F,RDIVX,RINSER,CLOSE1,RPpos,RPcero,LPpos,LPcero
      Another ordinary MODELS data card.          |OUTPUT o1,o2,o3, o4, o5, o6, o7, o8, o9, o10, o11, o12, o13
      Another ordinary MODELS data card.          |VAR o1,o2,o3, o4, o5, o6, o7, o8, o9, o10, o11, o12, o13
      Another ordinary MODELS data card.          |INIT
      Another ordinary MODELS data card.          |  o1:=AnVol
      Another ordinary MODELS data card.          |  o2:=LONG
      Another ordinary MODELS data card.          |  o3:=R0F
      Another ordinary MODELS data card.          |  o4:=R1F
      Another ordinary MODELS data card.          |  o5:=X0F
      Another ordinary MODELS data card.          |  O6:=X1F
      Another ordinary MODELS data card.          |  o7:=RDIVX
      Another ordinary MODELS data card.          |  o8:=RINSER
      Another ordinary MODELS data card.          |  o9:=CLOSE1
      Another ordinary MODELS data card.          |  o10:=RPpos
      Another ordinary MODELS data card.          |  o11:=RPcero
      Another ordinary MODELS data card.          |  o12:=LPpos
      Another ordinary MODELS data card.          |  o13:=LPcero
      Another ordinary MODELS data card.          |
      Another ordinary MODELS data card.          |ENDINIT
      Another ordinary MODELS data card.          |EXEC
      Another ordinary MODELS data card.          |ENDEXEC
      Another ordinary MODELS data card.          |ENDMODEL
      Another ordinary MODELS data card.          |MODEL DEFAULT1
      Another ordinary MODELS data card.          |DATA CPpos,CPcero,Xp,CR,SIMET,ENC1,ENC2,ENC1AS,ENC2AS
      Another ordinary MODELS data card.          |OUTPUT o1, o2, o3, o4, o5, o6, o7, o8, o9
      Another ordinary MODELS data card.          |VAR o1, o2, o3, o4, o5, o6, o7, o8, o9
      Another ordinary MODELS data card.          |INIT
      Another ordinary MODELS data card.          |  o1:=CPpos
      Another ordinary MODELS data card.          |  o2:=CPcero
      Another ordinary MODELS data card.          |  o3:=Xp
      Another ordinary MODELS data card.          |  o4:=CR
      Another ordinary MODELS data card.          |  o5:=SIMET
      Another ordinary MODELS data card.          |  o6:=ENC1
      Another ordinary MODELS data card.          |  o7:=ENC2
      Another ordinary MODELS data card.          |  o8:=ENC1AS
      Another ordinary MODELS data card.          |  o9:=ENC2AS
      Another ordinary MODELS data card.          |
      Another ordinary MODELS data card.          |ENDINIT
      Another ordinary MODELS data card.          |EXEC
      Another ordinary MODELS data card.          |ENDEXEC
      Another ordinary MODELS data card.          |ENDMODEL
      Another ordinary MODELS data card.          |USE DEFAULT AS DEFAULT
      Another ordinary MODELS data card.          |DATA
      Another ordinary MODELS data card.          |  AnVol:=      0.0
      Another ordinary MODELS data card.          |  LONG:= 76.35971
      Another ordinary MODELS data card.          |  R0F:= 2.278934
      Another ordinary MODELS data card.          |  R1F:= 2.168447
      Another ordinary MODELS data card.          |  X0F:= 9.194833
      Another ordinary MODELS data card.          |  X1F:=  8.74905
      Another ordinary MODELS data card.          |  RDIVX:= 0.247849
      Another ordinary MODELS data card.          |  RINSER:=    1.E-6
      Another ordinary MODELS data card.          |  CLOSE1:= 0.042044
      Another ordinary MODELS data card.          |  RPpos:= 0.017333
      Another ordinary MODELS data card.          |  RPcero:= 0.166714
      Another ordinary MODELS data card.          |  LPpos:=  0.38875
      Another ordinary MODELS data card.          |  LPcero:= 1.454654
      Another ordinary MODELS data card.          |OUTPUT
      Another ordinary MODELS data card.          |  AnVol:=o1
      Another ordinary MODELS data card.          |  LONG:=o2
      Another ordinary MODELS data card.          |  R0F:=o3
      Another ordinary MODELS data card.          |  R1F:=o4
      Another ordinary MODELS data card.          |  X0F:=o5
      Another ordinary MODELS data card.          |  X1F:=o6
      Another ordinary MODELS data card.          |  RDIVX:=o7
      Another ordinary MODELS data card.          |  RINSER:=o8
      Another ordinary MODELS data card.          |  CLOSE1:=o9
      Another ordinary MODELS data card.          |  RPpos:=o10
      Another ordinary MODELS data card.          |  RPcero:=o11
      Another ordinary MODELS data card.          |  LPpos:=o12
      Another ordinary MODELS data card.          |  LPcero:=o13
      Another ordinary MODELS data card.          |ENDUSE
      Another ordinary MODELS data card.          |USE DEFAULT1 AS DEF
      Another ordinary MODELS data card.          |DATA
      Another ordinary MODELS data card.          |  CPpos:= 0.014872
      Another ordinary MODELS data card.          |  CPcero:= 0.008779
      Another ordinary MODELS data card.          |  Xp:= 4312.322
      Another ordinary MODELS data card.          |  CR:= 86.24644
      Another ordinary MODELS data card.          |  SIMET:=       1.
      Another ordinary MODELS data card.          |  ENC1:=      0.0
      Another ordinary MODELS data card.          |  ENC2:=      0.0
      Another ordinary MODELS data card.          |  ENC1AS:=      0.0
      Another ordinary MODELS data card.          |  ENC2AS:=      0.0
      Another ordinary MODELS data card.          |OUTPUT
      Another ordinary MODELS data card.          |  CPpos:=o1
      Another ordinary MODELS data card.          |  CPcero:=o2
      Another ordinary MODELS data card.          |  Xp:=o3
      Another ordinary MODELS data card.          |  CR:=o4
      Another ordinary MODELS data card.          |  SIMET:=o5
      Another ordinary MODELS data card.          |  ENC1:=o6
      Another ordinary MODELS data card.          |  ENC2:=o7
      Another ordinary MODELS data card.          |  ENC1AS:=o8
      Another ordinary MODELS data card.          |  ENC2AS:=o9
      Another ordinary MODELS data card.          |ENDUSE
      Another ordinary MODELS data card.          |RECORD
      Another ordinary MODELS data card.          |  DEFAULT.o1 AS AnVOL
      Another ordinary MODELS data card.          |  DEFAULT.o2 AS LONG
      Another ordinary MODELS data card.          |  DEFAULT.o3 AS R0F
      Another ordinary MODELS data card.          |  DEFAULT.o4 AS R1F
      Another ordinary MODELS data card.          |  DEFAULT.o5 AS X0F
      Another ordinary MODELS data card.          |  DEFAULT.o6 AS X1F
      Another ordinary MODELS data card.          |  DEFAULT.o7 AS RDIVX
      Another ordinary MODELS data card.          |  DEFAULT.o8 AS RINSER
      Another ordinary MODELS data card.          |  DEFAULT.o9 AS CLOSE1
      Another ordinary MODELS data card.          |  DEFAULT.o10 AS RPpos
      Another ordinary MODELS data card.          |  DEFAULT.o11 AS RPcero
      Another ordinary MODELS data card.          |  DEFAULT.o12 AS LPpos
      Another ordinary MODELS data card.          |  DEFAULT.o13 AS LPcero
      Another ordinary MODELS data card.          |  DEF.o1 AS CPpos
      Another ordinary MODELS data card.          |  DEF.o2 AS CPcero
      Another ordinary MODELS data card.          |  DEF.o3 AS Xp
      Another ordinary MODELS data card.          |  DEF.o4 AS CR
      Another ordinary MODELS data card.          |  DEF.o5 AS SIMET
      Another ordinary MODELS data card.          |  DEF.o6 AS ENC1
      Another ordinary MODELS data card.          |  DEF.o7 AS ENC2
      Another ordinary MODELS data card.          |  DEF.o8 AS ENC1AS
      Another ordinary MODELS data card.          |  DEF.o9 AS ENC2AS
Termination of data for Laurent Dube`s MODELS.    |ENDMODELS
Comment card.   NUMDCD = 153.                     |C        1         2         3         4         5         6         7         8
Comment card.   NUMDCD = 154.                     |C 345678901234567890123456789012345678901234567890123456789012345678901234567890
Optional blank card follows last of MODELS data.  |BLANK MODELS
Comment card.   NUMDCD = 156.                     |C < n1 >< n2 ><ref1><ref2>< R  >< L  >< C  >
Comment card.   NUMDCD = 157.                     |C < n1 >< n2 ><ref1><ref2>< R  >< A  >< B  ><Leng><><>0
1st of coupled R-L.   2.27890E+00  2.92681E-02    |51IFUENASB1A              2.27899.1948328766
2nd coil. 2.168E+00 2.785E-02 0.000E+00 0.000E+00 |52IFUENBSB1B              2.16848.7490500667
Zca, Zcc= 3.683E-02 4.730E-04 2.205E+00 2.832E-02 |53IFUENCSB1C
Series R-L-C.   1.000E+09  0.000E+00  0.000E+00   |  SB1A                      1.E9                                               0
Series R-L-C.   1.000E+09  0.000E+00  0.000E+00   |  SB1B                      1.E9                                               0
Series R-L-C.   1.000E+09  0.000E+00  0.000E+00   |  SB1C                      1.E9                                               0
Series R-L-C.   1.000E+09  0.000E+00  0.000E+00   |  RSNSHA                    1.E9                                               0
Series R-L-C.   1.000E+09  0.000E+00  0.000E+00   |  RSNSHB                    1.E9                                               0
Series R-L-C.   1.000E+09  0.000E+00  0.000E+00   |  RSNSHC                    1.E9                                               0
Series R-L-C.   1.000E+09  0.000E+00  0.000E+00   |  RSNNHA                    1.E9                                               0
Series R-L-C.   1.000E+09  0.000E+00  0.000E+00   |  RSNNHB                    1.E9                                               0
Series R-L-C.   1.000E+09  0.000E+00  0.000E+00   |  RSNNHC                    1.E9                                               0
Series R-L-C.   1.000E+09  0.000E+00  0.000E+00   |  SE2A                      1.E9                                               0
Series R-L-C.   1.000E+09  0.000E+00  0.000E+00   |  SE2B                      1.E9                                               0
Series R-L-C.   1.000E+09  0.000E+00  0.000E+00   |  SE2C                      1.E9                                               0
Series R-L-C.   2.500E+02  0.000E+00  3.000E-10   |  X0001B                    250.       .0003                                   0
Series R-L-C.   2.500E+02  0.000E+00  3.000E-10   |  X0002B                    250.       .0003                                   0
Series R-L-C.   1.000E-06  0.000E+00  0.000E+00   |  X0001ALN1A               1.E-6                                               0
Series R-L-C.   1.000E-06  0.000E+00  0.000E+00   |  SB1A  X0002A             1.E-6                                               0
Series R-L-C.   1.000E-06  0.000E+00  0.000E+00   |  X0001BLN1B               1.E-6                                               0
Series R-L-C.   1.000E-06  0.000E+00  0.000E+00   |  SB1B  X0002B             1.E-6                                               0
Series R-L-C.   1.000E-06  0.000E+00  0.000E+00   |  X0001CLN1C               1.E-6                                               0
Series R-L-C.   1.000E-06  0.000E+00  0.000E+00   |  SB1C  X0002C             1.E-6                                               0
Series R-L-C.   1.000E-06  0.000E+00  0.000E+00   |  XX0005X0002A             1.E-6                                               0
Series R-L-C.   1.000E-06  0.000E+00  0.000E+00   |  XX0003X0002B             1.E-6                                               0
Series R-L-C.   1.000E-06  0.000E+00  0.000E+00   |  XX0004X0002C             1.E-6                                               0
Series R-L-C.   2.500E+02  0.000E+00  3.000E-10   |  X0001A                    250.       .0003                                   0
Series R-L-C.   1.000E+06  0.000E+00  0.000E+00   |  X0001AX0002A              1.E6                                               0
Series R-L-C.   1.000E+06  0.000E+00  0.000E+00   |  X0001BX0002B              1.E6                                               0
Series R-L-C.   1.000E+06  0.000E+00  0.000E+00   |  X0001CX0002C              1.E6                                               0
Series R-L-C.   2.500E+02  0.000E+00  3.000E-10   |  X0002C                    250.       .0003                                   0
Series R-L-C.   2.500E+02  0.000E+00  3.000E-10   |  X0002A                    250.       .0003                                   0
Series R-L-C.   2.500E+02  0.000E+00  3.000E-10   |  X0001C                    250.       .0003                                   0
Series R-L-C.   1.250E+02  0.000E+00  6.000E-10   |  X0001AX0002A              125.       .0006                                   0
Series R-L-C.   1.250E+02  0.000E+00  6.000E-10   |  X0001BX0002B              125.       .0006                                   0
Series R-L-C.   1.250E+02  0.000E+00  6.000E-10   |  X0001CX0002C              125.       .0006                                   0
 1.667E-01 1.455E+00 8.780E-03 7.262E+02 4.869E-04|-1LN1A  VFF2A             .166711.4547.00878 76.36 0 0                         0
 1.733E-02 3.887E-01 1.487E-02 2.885E+02 3.276E-04|-2LN1B  VFF2B             .01733.38875.01487 76.36 0 0                         0
3rd or later transposed distributed phase.        |-3LN1C  VFF2C                                                                  0
Blank card ending branches.  IBR, NTOT = 39  31   |BLANK BRANCH
Comment card.   NUMDCD = 198.                     |C < n 1>< n 2>< Tclose ><Top/Tde ><   Ie   ><Vf/CLOP ><  type  >
Switch.  -1.00E+00  1.00E+01  0.00E+00  0.00E+00  |  LN1A  COMPA        -1.       10.                                             0
Switch.  -1.00E+00  1.00E+01  0.00E+00  0.00E+00  |  LN1B  COMPB        -1.       10.                                             0
Switch.  -1.00E+00  1.00E+01  0.00E+00  0.00E+00  |  LN1C  COMPC        -1.       10.                                             0
Switch.  -1.00E+00  1.00E+01  0.00E+00  0.00E+00  |  VFF2A RSNNHA       -1.       10.                                             0
Switch.  -1.00E+00  1.00E+01  0.00E+00  0.00E+00  |  VFF2B RSNNHB       -1.       10.                                             0
Switch.  -1.00E+00  1.00E+01  0.00E+00  0.00E+00  |  VFF2C RSNNHC       -1.       10.                                             0
Switch.   2.00E+00 -1.00E+00  0.00E+00  0.00E+00  |  VFF2A SE2A          2.       -1.                                             0
Switch.   2.00E+00 -1.00E+00  0.00E+00  0.00E+00  |  VFF2B SE2B          2.       -1.                                             0
Switch.   2.00E+00 -1.00E+00  0.00E+00  0.00E+00  |  VFF2C SE2C          2.       -1.                                             0
Switch.   4.20E-02  1.00E+03  0.00E+00  0.00E+00  |  X0001BXX0003.042043956      1.E3                                             0
Switch.   4.20E-02  1.00E+03  0.00E+00  0.00E+00  |  X0001CXX0004.042043956      1.E3                                             0
Switch.   4.95E-02  1.00E+03  0.00E+00  0.00E+00  |  XX0005X0002A.049543956      1.E3                                             0
Switch.   4.95E-02  1.00E+03  0.00E+00  0.00E+00  |  XX0003X0002B.049543956      1.E3                                             0
Switch.   4.95E-02  1.00E+03  0.00E+00  0.00E+00  |  XX0004X0002C.049543956      1.E3                                             0
Switch.   4.20E-02  1.00E+03  0.00E+00  0.00E+00  |  X0001AXX0005.042043956      1.E3                                             0
Permanently-closed switch used for metering.      |  VFUENAIFUENA                                        MEASURING                1
Permanently-closed switch used for metering.      |  VFUENBIFUENB                                        MEASURING                1
Permanently-closed switch used for metering.      |  VFUENCIFUENC                                        MEASURING                1
Permanently-closed switch used for metering.      |  COMPA RSNSHA                                        MEASURING                1
Permanently-closed switch used for metering.      |  COMPB RSNSHB                                        MEASURING                1
Permanently-closed switch used for metering.      |  COMPC RSNSHC                                        MEASURING                1
Blank card ending switches.   KSWTCH = 21.        |BLANK SWITCH
Comment card.   NUMDCD = 221.                     |C < n 1><>< Ampl.  >< Freq.  ><Phase/T0><   A1   ><   T1   >< TSTART >< TSTOP  >
Source.   4.29E+05  5.00E+01  0.00E+00 -1.00E+00  |14VFUENA  428660.705       50.                                     -1.      100.
Source.   4.29E+05  5.00E+01 -1.20E+02 -1.00E+00  |14VFUENB  428660.705       50.     -120.                           -1.      100.
Source.   4.29E+05  5.00E+01 -2.40E+02 -1.00E+00  |14VFUENC  428660.705       50.     -240.                           -1.      100.
Blank card ends electric sources.  KCONST = 3     |BLANK SOURCE
Pi-equivalent branches of distributed circuits are added to the table of List Size 3 between indices  40   and  45.

Sinusoidal steady-state phasor solution, branch by branch.   All flows are away from a bus,  and the real part,  magnitude,  or  "P"
is printed above the imaginary part,  the angle,  or  "Q".   The first solution frequency  =  5.00000000E+01  Hertz.
  Bus K                        Phasor  node  voltage              Phasor  branch  current               Power flow       Power loss
             Bus M         Rectangular            Polar          Rectangular            Polar            P  and  Q        P  and  Q

 IFUENA                    428660.705       428660.705      .42863141920694  .44575141288187      91868.723171198   .2154243840058
                                  0.0              0.0      .12234961607961       15.9309970      -26223.23634258        0.8691933

            SB1A      428660.84599855  428660.84601735      -.4286314192069  .44575141288187      -91868.50774681
                      -4.015420654312       -0.0005367      -.1223496160796     -164.0690030      26224.105535869

 IFUENB                  -214330.3525       428660.705      -.1083578339333  .44575141287705      91868.723170155  .21542438400066
                      -371231.0601341     -120.0000000      -.4323805059287     -104.0690030      -26223.23634247        0.8691933

            SB1B      -214333.9004556  428660.84601735      .10835783393326  .44575141287705      -91868.50774577
                      -371229.1745321     -120.0005367      .43238050592872       75.9309970      26224.105535759

 IFUENC                  -214330.3525       428660.705      -.3202735852584  .44575141287625      91868.723170822  .21542438400097
                      371231.06013415      120.0000000      .31003088985922      135.9309970      -26223.23633951        0.8691933

            SB1C       -214326.945543  428660.84601735       .3202735852584  .44575141287625      -91868.50774644
                       371233.1899528      119.9994633      -.3100308898592      -44.0690030      26224.105532798

 SB1A                 428660.84599855  428660.84601735        .428660846E-3  .42866084602E-3      91.875060454157  91.875060454157
                      -4.015420654312       -0.0005367      -.4015420654E-8       -0.0005367      -.479632406E-19        0.0000000

            TERRA                 0.0              0.0       -.428660846E-3  .42866084602E-3                  0.0
                                  0.0              0.0      .40154206543E-8      179.9994633                  0.0

 SB1B                 -214333.9004556  428660.84601735      -.2143339005E-3  .42866084602E-3      91.875060454157  91.875060454157
                      -371229.1745321     -120.0005367      -.3712291745E-3     -120.0005367      -.189778748E-14        0.0000000

            TERRA                 0.0              0.0      .21433390046E-3  .42866084602E-3                  0.0
                                  0.0              0.0      .37122917453E-3       59.9994633                  0.0

 SB1C                  -214326.945543  428660.84601735      -.2143269455E-3  .42866084602E-3      91.875060454157  91.875060454157
                       371233.1899528      119.9994633      .37123318995E-3      119.9994633      -.176247905E-14        0.0000000

            TERRA                 0.0              0.0      .21432694554E-3  .42866084602E-3                  0.0
                                  0.0              0.0        -.37123319E-3      -60.0005367                  0.0

 RSNSHA               229.07786999277  1217.5557455366      .22907786999E-6  .12175557455E-5      .74122099674E-3  .74122099674E-3
                      -1195.811575027      -79.1554113      -.1195811575E-5      -79.1554113      .9714409114E-20        0.0000000

            TERRA                 0.0              0.0        -.22907787E-6  .12175557455E-5                  0.0
                                  0.0              0.0       .1195811575E-5      100.8445887                  0.0

 RSNSHB               -1150.142137109  1217.5557455366      -.1150142137E-5  .12175557455E-5      .74122099674E-3  .74122099674E-3
                      399.51853265498      160.8445887      .39951853265E-6      160.8445887      -.175229941E-19        0.0000000

            TERRA                 0.0              0.0      .11501421371E-5  .12175557455E-5                  0.0
                                  0.0              0.0      -.3995185327E-6      -19.1554113                  0.0

 RSNSHC               921.06426711656  1217.5557455366      .92106426712E-6  .12175557455E-5      .74122099674E-3  .74122099674E-3
                      796.29304237212       40.8445887      .79629304237E-6       40.8445887      .4129285618E-20        0.0000000

            TERRA                 0.0              0.0      -.9210642671E-6  .12175557455E-5                  0.0
                                  0.0              0.0      -.7962930424E-6     -139.1554113                  0.0

 RSNNHA               230.01132230142  1224.0307536725       .2300113223E-6  .12240307537E-5      .74912564297E-3  .74912564297E-3
                      -1202.225468683      -79.1689843      -.1202225469E-5      -79.1689843      .6365981994E-20        0.0000000

            TERRA                 0.0              0.0      -.2300113223E-6  .12240307537E-5                  0.0
                                  0.0              0.0      .12022254687E-5      100.8310157                  0.0

 RSNNHB               -1156.163458107  1224.0307536725      -.1156163458E-5  .12240307537E-5      .74912564297E-3  .74912564297E-3
                      401.91708607027      160.8310157      .40191708607E-6      160.8310157      .1019086515E-19        0.0000000

            TERRA                 0.0              0.0      .11561634581E-5  .12240307537E-5                  0.0
                                  0.0              0.0      -.4019170861E-6      -19.1689843                  0.0

 RSNNHC               926.15213580516  1224.0307536725      .92615213581E-6  .12240307537E-5      .74912564297E-3  .74912564297E-3
                      800.30838261242       40.8310157      .80030838261E-6       40.8310157      .1262608487E-19        0.0000000

            TERRA                 0.0              0.0      -.9261521358E-6  .12240307537E-5                  0.0
                                  0.0              0.0      -.8003083826E-6     -139.1689843                  0.0

 X0001B               -1150.142137252  1217.5557455367      -.3765628863E-4  .11475192553E-3      .16460005517E-5  .16460005517E-5
                      399.51853224327      160.8445887      -.1083974554E-3     -109.1567613       -.069858433103       -0.0698584

            TERRA                 0.0              0.0      .37656288631E-4  .11475192553E-3                  0.0
                                  0.0              0.0      .10839745541E-3       70.8432387                  0.0

 X0002B               -214333.9004555  428660.84601693      .03498704944286  .04040033293064      .20402336261363  .20402336261363
                      -371229.1745317     -120.0005367      -.0202013185755      -30.0018867      -8659.020444302    -8659.0204443

            TERRA                 0.0              0.0      -.0349870494429  .04040033293064                  0.0
                                  0.0              0.0      .02020131857551      149.9981133                  0.0

 X0001A               229.07787042087  1217.5557455367      .42809631395357   .4358653128357      .04876352013808  .94989285469E-7
                      -1195.811574945      -79.1554113      .08192751010938       10.8340593      -265.3451534809              0.0

            LN1A      229.07786999277  1217.5557455366      -.4280963139536   .4358653128357      -.0487634251488
                      -1195.811575027      -79.1554113      -.0819275101094     -169.1659407      265.34515348089

 SB1A                 428660.84599855  428660.84601735      .42817555367947  .44531307451609      91770.801895472  .99151861832E-7
                      -4.015420654312       -0.0005367      .12234962021296       15.9470967      -26224.10550652              0.0

            X0002A    428660.84599812  428660.84601693      -.4281755536795  .44531307451609      -91770.80189537
                      -4.015420776661       -0.0005367       -.122349620213     -164.0529033      26224.105506525

 X0001B               -1150.142137252  1217.5557455367      -.1430967131455  .43586530916021      .04867483562878  .94989283855E-7
                      399.51853224327      160.8445887      -.4117060825592     -109.1659216      -265.3451512596              0.0

            LN1B      -1150.142137109  1217.5557455366       .1430967131455  .43586530916021      -.0486747406395
                      399.51853265498      160.8445887      .41170608255925       70.8340784      265.34515125962

 SB1B                 -214333.9004556  428660.84601735      -.1081498339772  .44534851400018      91778.793151724  .99167650092E-7
                      -371229.1745321     -120.0005367      -.4320172592998     -104.0544061      -26223.78532834        0.0000000

            X0002B    -214333.9004555  428660.84601693      .10814983397722  .44534851400018      -91778.79315162
                      -371229.1745317     -120.0005367      .43201725929976       75.9455939      26223.785328344

 X0001C               921.06426683156  1217.5557455367      -.2849996008081  .43586535114056      .04867199018772   .9498930216E-7
                      796.29304270189       40.8445887      .32977845876303      130.8340790      -265.3451768169        0.0000000

            LN1C      921.06426711656  1217.5557455366      .28499960080808  .43586535114056      -.0486718951984
                      796.29304237212       40.8445887       -.329778458763      -49.1659210      265.34517681685

 SB1C                  -214326.945543  428660.84601735      -.3200548235327  .44533959088771      91777.103971019  .99163678158E-7
                       371233.1899528      119.9994633      .30966475605965      135.9452668      -26222.73589562              0.0

            X0002C    -214326.9455427  428660.84601693       .3200548235327  .44533959088771      -91777.10397092
                      371233.18995249      119.9994633      -.3096647560596      -44.0547332      26222.735895624

 XX0005               428660.84599812  428660.84601693                  0.0              0.0                  0.0              0.0
                      -4.015420776661       -0.0005367                  0.0              0.0                  0.0              0.0

            X0002A    428660.84599812  428660.84601693                  0.0              0.0                  0.0
                      -4.015420776661       -0.0005367                  0.0              0.0                  0.0

 XX0003               -214333.9004555  428660.84601693                  0.0              0.0                  0.0              0.0
                      -371229.1745317     -120.0005367                  0.0              0.0                  0.0              0.0

            X0002B    -214333.9004555  428660.84601693                  0.0              0.0                  0.0
                      -371229.1745317     -120.0005367                  0.0              0.0                  0.0

 XX0004               -214326.9455427  428660.84601693                  0.0              0.0                  0.0              0.0
                      371233.18995249      119.9994633                  0.0              0.0                  0.0              0.0

            X0002C    -214326.9455427  428660.84601693                  0.0              0.0                  0.0
                      371233.18995249      119.9994633                  0.0              0.0                  0.0

 X0001A               229.07787042087  1217.5557455367      .11270309441E-3  .11475192553E-3      .16460005517E-5  .16460005517E-5
                      -1195.811574945      -79.1554113       .2158742514E-4       10.8432387       -.069858433103       -0.0698584

            TERRA                 0.0              0.0      -.1127030944E-3  .11475192553E-3                  0.0
                                  0.0              0.0      -.2158742514E-4     -169.1567613                  0.0

 X0001A               229.07787042087  1217.5557455367      -.4284317681277  .42843342577243      -48.35953671361  91777.600159549
                      -1195.811574945      -79.1554113      -.0011917961542     -179.8406171      256.29834076314        0.0000000

            X0002A    428660.84599812  428660.84601693       .4284317681277  .42843342577243      91825.959696263
                      -4.015420776661       -0.0005367      .00119179615417        0.1593829      -256.2983407631

 X0001B               -1150.142137252  1217.5557455367      .21318375831821  .42843342577243       -48.3595367136  91777.600159549
                      399.51853224327      160.8445887      .37162869306396       60.1593829      256.29834076314        0.0000000

            X0002B    -214333.9004555  428660.84601693      -.2131837583182  .42843342577243      91825.959696263
                      -371229.1745317     -120.0005367       -.371628693064     -119.8406171      -256.2983407631

 X0001C               921.06426683156  1217.5557455367      .21524800980949  .42843342577243       -48.3595367136  91777.600159549
                      796.29304270189       40.8445887      -.3704368969098      -59.8406171      256.29834076315        0.0000000

            X0002C    -214326.9455427  428660.84601693      -.2152480098095  .42843342577243      91825.959696263
                      371233.18995249      119.9994633      .37043689690979      120.1593829      -256.2983407631

 X0002C               -214326.9455427  428660.84601693      -.0349883797978  .04040033293064       .2040233626131   .2040233626131
                      371233.18995249      119.9994633      -.0201990143332     -150.0018867      -8659.020444302    -8659.0204443

            TERRA                 0.0              0.0      .03498837979777  .04040033293064                  0.0
                                  0.0              0.0      .02019901433322       29.9981133                  0.0

 X0002A               428660.84599812  428660.84601693      .13303549104E-5  .04040033293064      .20402336261328  .20402336261328
                      -4.015420776661       -0.0005367      .04040033290873       89.9981133      -8659.020444302    -8659.0204443

            TERRA                 0.0              0.0       -.133035491E-5  .04040033293064                  0.0
                                  0.0              0.0      -.0404003329087      -90.0018867                  0.0

 X0001C               921.06426683156  1217.5557455367      -.7504680578E-4  .11475192553E-3      .16460005517E-5  .16460005517E-5
                      796.29304270189       40.8445887      .86810030274E-4      130.8432387       -.069858433103       -0.0698584

            TERRA                 0.0              0.0      .75046805779E-4  .11475192553E-3                  0.0
                                  0.0              0.0      -.8681003027E-4      -49.1567613                  0.0

 X0001A               229.07787042087  1217.5557455367        .222745479E-3  .08075779815512      48.310884261031  .40761387267895
                      -1195.811574945      -79.1554113      -.0807574909672      -89.8419671      9.1166962146212   -17299.6700559

            X0002A    428660.84599812  428660.84601693       -.222745479E-3  .08075779815512      -47.90327038835
                      -4.015420776661       -0.0005367      .08075749096718       90.1580329      -17308.78675213

 X0001B               -1150.142137252  1217.5557455367       -.070049411463  .08075779815512      48.310884261031  .40761387267823
                      399.51853224327      160.8445887       .0401858422402      150.1580329      9.1166962146208   -17299.6700559

            X0002B    -214333.9004555  428660.84601693      .07004941146297  .08075779815512      -47.90327038835
                      -371229.1745317     -120.0005367      -.0401858422402      -29.8419671      -17308.78675213

 X0001C               921.06426683156  1217.5557455367      .06982666598397  .08075779815512      48.310884261032  .40761387267776
                      796.29304270189       40.8445887      .04057164872698       30.1580329      9.1166962146212   -17299.6700559

            X0002C    -214326.9455427  428660.84601693       -.069826665984  .08075779815512      -47.90327038835
                      371233.18995249      119.9994633       -.040571648727     -149.8419671      -17308.78675213

 LN1A                 229.07786999277  1217.5557455366      .42809609641913  .43586535375652      .04792871924675  .04717959360417
                      -1195.811575027      -79.1554113       .0819288644862       10.8342395      -265.3451785447     -265.3451785

            VFF2A     230.01132230142  1224.0307536725      -.2300113263E-6   .1224030753E-5      -.7491256426E-3
                      -1202.225468683      -79.1689843      .12022254673E-5      100.8310159       .256438583E-11

 LN1B                 -1150.142137109  1217.5557455366      -.1430955702613  .43586535375652      .04792871924483  .04717959360242
                      399.51853265498      160.8445887       -.411706527003     -109.1657605      -265.3451785447     -265.3451785

            VFF2B     -1156.163458107  1224.0307536725      .11561634581E-5  .12240307528E-5      -.7491256424E-3
                      401.91708607027      160.8310157      -.4019170834E-6      -19.1689841      .1539396028E-11

 LN1C                 921.06426711656  1217.5557455366      -.2850005261578  .43586535375652      .04792871924584  .04717959360362
                      796.29304237212       40.8445887      .32977766251682      130.8342395      -265.3451785447     -265.3451785

            VFF2C     926.15213580516  1224.0307536725      -.9261521371E-6  .12240307525E-5      -.7491256422E-3
                      800.30838261242       40.8310157      -.8003083793E-6     -139.1689844      -.202734919E-11
     Total network loss  P-loss  by summing injections =   2.756332290082E+05

Output for steady-state phasor switch currents.
      Node-K    Node-M            I-real            I-imag            I-magn          Degrees        Power            Reactive
      LN1A      COMPA         2.10924767E-07   -1.19903450E-06    1.21744527E-06     -80.0231    7.41068765E-04    1.12229955E-05
      LN1B      COMPB        -1.07342447E-06    4.80253727E-07    1.17596077E-06     155.8961    7.13230491E-04    6.17535384E-05
      LN1C      COMPC         1.03455436E-06    7.34466798E-07    1.26875695E-06      35.3723    7.68870925E-04    7.36586562E-05
      VFF2A     RSNNHA        2.30011325E-07   -1.20222547E-06    1.22403075E-06     -79.1690    7.49125643E-04   -1.65032776E-12
      VFF2B     RSNNHB       -1.15616346E-06    4.01917084E-07    1.22403075E-06     160.8310    7.49125642E-04   -1.16653852E-12
      VFF2C     RSNNHC        9.26152140E-07    8.00308377E-07    1.22403075E-06      40.8310    7.49125643E-04    4.50409182E-12
      VFF2A     SE2A              Open              Open              Open             Open          Open              Open
      VFF2B     SE2B              Open              Open              Open             Open          Open              Open
      VFF2C     SE2C              Open              Open              Open             Open          Open              Open
      X0001B    XX0003            Open              Open              Open             Open          Open              Open
      X0001C    XX0004            Open              Open              Open             Open          Open              Open
      XX0005    X0002A            Open              Open              Open             Open          Open              Open
      XX0003    X0002B            Open              Open              Open             Open          Open              Open
      XX0004    X0002C            Open              Open              Open             Open          Open              Open
      X0001A    XX0005            Open              Open              Open             Open          Open              Open
      VFUENA    IFUENA        4.28631419E-01    1.22349616E-01    4.45751413E-01      15.9310    9.18687232E+04   -2.62232363E+04
      VFUENB    IFUENB       -1.08357834E-01   -4.32380506E-01    4.45751413E-01    -104.0690    9.18687232E+04   -2.62232363E+04
      VFUENC    IFUENC       -3.20273585E-01    3.10030890E-01    4.45751413E-01     135.9310    9.18687232E+04   -2.62232363E+04
      COMPA     RSNSHA        2.10924767E-07   -1.19903450E-06    1.21744527E-06     -80.0231    7.41068765E-04    1.12229955E-05
      COMPB     RSNSHB       -1.07342447E-06    4.80253727E-07    1.17596077E-06     155.8961    7.13230491E-04    6.17535384E-05
      COMPC     RSNSHC        1.03455436E-06    7.34466798E-07    1.26875695E-06      35.3723    7.68870925E-04    7.36586562E-05

Solution at nodes with known voltage.   Nodes that are shorted together by switches are shown as a group of names, with the printed
result applying to the composite group.   The entry "MVA" is  SQRT( P**2 + Q**2 )  in units of power,  while  "P.F."  is the
associated power factor.
              Node                Source  node  voltage             Injected  source  current              Injected  source  power
              name         Rectangular            Polar          Rectangular            Polar            P  and  Q    MVA and P.F.

               VFUENA
              IFUENA       428660.705       428660.705      .42863141920546  .44575141288165      91868.723170882  95538.057450297
                                  0.0              0.0      .12234961608399       15.9309970      -26223.23634352        0.9615930

               VFUENB
              IFUENB     -214330.3525       428660.705      -.1083578339283  .44575141287638      91868.723169725  95538.057449167
                      -371231.0601341     -120.0000000      -.4323805059293     -104.0690030      -26223.23634346        0.9615930

               VFUENC
              IFUENC     -214330.3525       428660.705      -.3202735852592  .44575141287784      91868.723171179   95538.05744948
                      371231.06013415      120.0000000      .31003088986069      135.9309970       -26223.2363395        0.9615930

  +++  Node  "COMPC "  has no connected linear branches.  Add (to ground) the conductance  G = 1.00000000E-18  mhos.
  +++  Node  "COMPB "  has no connected linear branches.  Add (to ground) the conductance  G = 1.00000000E-18  mhos.
  +++  Node  "COMPA "  has no connected linear branches.  Add (to ground) the conductance  G = 1.00000000E-18  mhos.
Card of names for time-step loop output.          |  LN1A  LN1B  LN1C  COMPA COMPB COMPC SB1A  SB1B  SB1C  SE2A  SE2B  SE2C  VFF2A
Card of names for time-step loop output.          |  VFF2B VFF2C IFUENAIFUENBIFUENC
Card of names for time-step loop output.          |-5VFF2A VFF2B VFF2B VFF2C VFF2C VFF2A LN1A  LN1B  LN1B  LN1C  LN1C  LN1A
Card of names for time-step loop output.          |-5SB1A  SB1B  SB1B  SB1C  SB1C  SB1A
Blank card ending requests for output variables.  |BLANK OUTPUT

Column headings for the  55   EMTP output variables follow.  These are divided among the 5 possible classes as follows ....
  First  27     output variables are electric-network voltage differences (upper voltage minus lower voltage);
  Next   6     output variables are branch currents (flowing from the upper node to the lower node);
  Next   22     output variables belong to MODELS (with "MODELS" an internally-added upper name of pair).
   Step      Time      LN1A       LN1B       LN1C       COMPA      COMPB      COMPC      SB1A       SB1B       SB1C       SE2A
 

                       SE2B       SE2C       VFF2A      VFF2B      VFF2C      IFUENA     IFUENB     IFUENC     VFF2A      VFF2B
                                                                                                               VFF2B      VFF2C

                       VFF2C      LN1A       LN1B       LN1C       SB1A       SB1B       SB1C       VFUENA     VFUENB     VFUENC
                       VFF2A      LN1B       LN1C       LN1A       SB1B       SB1C       SB1A       IFUENA     IFUENB     IFUENC

                       COMPA      COMPB      COMPC      MODELS     MODELS     MODELS     MODELS     MODELS     MODELS     MODELS
                       RSNSHA     RSNSHB     RSNSHC     ANVOL      LONG       R0F        R1F        X0F        X1F        RDIVX

                       MODELS     MODELS     MODELS     MODELS     MODELS     MODELS     MODELS     MODELS     MODELS     MODELS
                       RINSER     CLOSE1     RPPOS      RPCERO     LPPOS      LPCERO     CPPOS      CPCERO     XP         CR

                       MODELS     MODELS     MODELS     MODELS     MODELS
                       SIMET      ENC1       ENC2       ENC1AS     ENC2AS
 ***      Phasor I(0) =  2.1092477E-07                     Switch  "LN1A  "  to  "COMPA "  closed in the steady-state.
 ***      Phasor I(0) = -1.0734245E-06                     Switch  "LN1B  "  to  "COMPB "  closed in the steady-state.
 ***      Phasor I(0) =  1.0345544E-06                     Switch  "LN1C  "  to  "COMPC "  closed in the steady-state.
 ***      Phasor I(0) =  2.3001132E-07                     Switch  "VFF2A "  to  "RSNNHA"  closed in the steady-state.
 ***      Phasor I(0) = -1.1561635E-06                     Switch  "VFF2B "  to  "RSNNHB"  closed in the steady-state.
 ***      Phasor I(0) =  9.2615214E-07                     Switch  "VFF2C "  to  "RSNNHC"  closed in the steady-state.
 ***      Phasor I(0) =  4.2863142E-01                     Switch  "VFUENA"  to  "IFUENA"  closed in the steady-state.
 ***      Phasor I(0) = -1.0835783E-01                     Switch  "VFUENB"  to  "IFUENB"  closed in the steady-state.
 ***      Phasor I(0) = -3.2027359E-01                     Switch  "VFUENC"  to  "IFUENC"  closed in the steady-state.
 ***      Phasor I(0) =  2.1092477E-07                     Switch  "COMPA "  to  "RSNSHA"  closed in the steady-state.
 ***      Phasor I(0) = -1.0734245E-06                     Switch  "COMPB "  to  "RSNSHB"  closed in the steady-state.
 ***      Phasor I(0) =  1.0345544E-06                     Switch  "COMPC "  to  "RSNSHC"  closed in the steady-state.
      0       0.0   229.07787 -1150.1421 921.064267  229.07787 -1150.1421 921.064267 428660.846  -214333.9 -214326.95        0.0
                          0.0        0.0 230.011322 -1156.1635 926.152136 428660.705 -214330.35 -214330.35 1386.17478 -2082.3156
                   696.140814 1379.22001 -2071.2064 691.986397 642994.746 -6.9549126 -642987.79 .428631419 -.10835783 -.32027359
                   .210925E-6 -.10734E-5 .103455E-5        0.0   76.35971   2.278934   2.168447   9.194833    8.74905    .247849
                        .1E-5    .042044    .017333    .166714     .38875   1.454654    .014872    .008779   4312.322   86.24644
                          1.0        0.0        0.0        0.0        0.0
    500     .5E-3  413.323467 -1198.4802 785.157105 413.323467 -1198.4802 785.157105 423383.964 -153622.06 -269761.91        0.0
                          0.0        0.0 415.259431 -1204.7982 789.554315  423383.18 -153618.26 -269764.92 1620.05763 -1994.3525
                   374.294884 1611.80371 -1983.6373 371.833638 577006.024 116139.846 -693145.87 .404251448 -.03938106 -.36485278
                   .433059E-6 -.11978E-5 .805536E-6        0.0   76.35971   2.278934   2.168447   9.194833    8.74905    .247849
                        .1E-5    .042044    .017333    .166714     .38875   1.454654    .014872    .008779   4312.322   86.24644
                          1.0        0.0        0.0        0.0        0.0
   1000     .1E-2  587.390426 -1217.3092 629.915194 587.390426 -1217.3092 629.915194 407681.891 -89127.536 -318554.39        0.0
                          0.0        0.0 590.271766 -1223.7771 633.504995 407680.557 -89123.572 -318556.98 1814.04889 -1857.2821
                   43.2332291 1804.69961 -1847.2244 42.5247685 496809.427  229426.85 -726236.28 .369890704 .030559266 -.40044002
                   .666964E-6 -.11704E-5 .644941E-6        0.0   76.35971   2.278934   2.168447   9.194833    8.74905    .247849
                        .1E-5    .042044    .017333    .166714     .38875   1.454654    .014872    .008779   4312.322   86.24644
                          1.0        0.0        0.0        0.0        0.0
   1500     .0015  746.997396 -1206.1616 459.164199 746.997396 -1206.1616 459.164199 381941.419 -22438.378 -359503.03        0.0
                          0.0        0.0 750.737973 -1212.6167 461.874802 381939.485 -22434.368 -359505.12 1963.35468 -1674.4915
                   -288.86317 1953.15902 -1665.3258  -287.8332 404379.797 337064.648 -741444.45 .326409018 .099748741 -.42615543
                   .729066E-6 -.13166E-5 .507716E-6        0.0   76.35971   2.278934   2.168447   9.194833    8.74905    .247849
                        .1E-5    .042044    .017333    .166714     .38875   1.454654    .014872    .008779   4312.322   86.24644
                          1.0        0.0        0.0        0.0        0.0
   2000      .002  888.203697 -1165.3137 277.113095 888.203697 -1165.3137 277.113095 346796.279 44803.2595 -391599.55        0.0
                          0.0        0.0 892.730961 -1171.5967  278.86467 346793.795 44807.2448 -391601.04 2064.32761 -1450.4613
                   -613.86629 2053.51735 -1442.4268  -611.0906  301993.02 436402.813 -738395.83 .274885903 .166480572 -.44137716
                   .938908E-6 -.13031E-5 .268163E-6        0.0   76.35971   2.278934   2.168447   9.194833    8.74905    .247849
                        .1E-5    .042044    .017333    .166714     .38875   1.454654    .014872    .008779   4312.322   86.24644
                          1.0        0.0        0.0        0.0        0.0
   2500     .0025  1007.54903 -1095.7754 88.2260239 1007.54903 -1095.7754 88.2260239 303111.845 110941.707 -414053.56        0.0
                          0.0        0.0 1012.74202  -1101.728  88.987858 303108.891 110945.554 -414054.45 2114.47007 -1190.7159
                   -923.75416 2103.32444 -1184.0014   -919.323 192170.138 524995.268 -717165.41 .216598088 .229115231  -.4457298
                   .107905E-5 -.11471E-5 .932632E-7        0.0   76.35971   2.278934   2.168447   9.194833    8.74905    .247849
                        .1E-5    .042044    .017333    .166714     .38875   1.454654    .014872    .008779   4312.322   86.24644
                          1.0        0.0        0.0        0.0        0.0
   3000      .003  1102.07989 -999.25461 -102.82843 1102.07989 -999.25461 -102.82843 251963.778 174348.409 -426312.18        0.0
                          0.0        0.0 1107.82053 -1004.7326 -103.08562 251960.441 174352.016 -426312.46 2112.55315   -901.647
                   -1210.9061  2101.3345 -896.42618 -1204.9083 77615.3696 600660.584 -678275.95  .15297993 .286108228 -.43910931
                    .12478E-5 -.10038E-5 -.11481E-6        0.0   76.35971   2.278934   2.168447   9.194833    8.74905    .247849
                        .1E-5    .042044    .017333    .166714     .38875   1.454654    .014872    .008779   4312.322   86.24644
                          1.0        0.0        0.0        0.0        0.0
   3500     .0035  1169.47649 -878.12726 -291.34999 1169.47649 -878.12726 -291.34999 194611.517 233462.059 -428073.59        0.0
                          0.0        0.0 1175.61432 -882.99758 -292.61652 194607.888 233465.353 -428073.24  2058.6119 -590.38105
                   -1468.2308 2047.60375 -586.77726 -1460.8265 -38850.542 661535.646  -622685.1 .085596662 .336056365 -.42167758
                   .112054E-5 -.87871E-6  -.3071E-6        0.0   76.35971   2.278934   2.168447   9.194833    8.74905    .247849
                        .1E-5    .042044    .017333    .166714     .38875   1.454654    .014872    .008779   4312.322   86.24644
                          1.0        0.0        0.0        0.0        0.0
   4000      .004  1208.07465 -735.37661 -472.69469 1208.07465 -735.37661 -472.69469 132467.312 286827.108 -419294.42        0.0
                          0.0        0.0 1214.46252  -739.5196 -474.94274 132463.443 286829.997 -419293.44 1953.98212 -264.57686
                   -1689.4053 1943.45126 -262.68192 -1680.7693  -154359.8 706121.525 -551761.73 .016106636 .377727369 -.39386729
                   .128709E-5  -.8236E-6  -.4856E-6        0.0   76.35971   2.278934   2.168447   9.194833    8.74905    .247849
                        .1E-5    .042044    .017333    .166714     .38875   1.454654    .014872    .008779   4312.322   86.24644
                          1.0        0.0        0.0        0.0        0.0
   4500     .0045  1216.92332 -574.52136  -642.4028 1216.92332 -574.52136  -642.4028  67061.293 333129.516 -400190.82        0.0
                          0.0        0.0 1223.40339 -577.83355 -645.57432 67057.3081 333131.936 -400189.24 1801.23694 67.7407737
                   -1868.9777 1791.44467 67.8814446 -1859.3261 -266068.22 733320.332 -467252.11 -.05378352  .41009916 -.35635339
                   .131035E-5 -.55695E-6 -.72987E-6        0.0   76.35971   2.278934   2.168447   9.194833    8.74905    .247849
                        .1E-5    .042044    .017333    .166714     .38875   1.454654    .014872    .008779   4312.322   86.24644
                          1.0        0.0        0.0        0.0        0.0
   5000      .005  1195.81056 -399.51722 -796.29143 1195.81056 -399.51722 -796.29143 4.01732451 371229.175 -371233.19        0.0
                          0.0        0.0 1202.22375 -401.91573 -800.30629 -.45661E-7  371231.06 -371231.06 1604.13949 398.390561
                     -2002.53 1595.32778 396.774214  -1992.102 -371225.16 742462.366 -371237.21 -.12235042 .432371664 -.31006631
                   .134967E-5 -.39413E-6 -.81421E-6        0.0   76.35971   2.278934   2.168447   9.194833    8.74905    .247849
                        .1E-5    .042044    .017333    .166714     .38875   1.454654    .014872    .008779   4312.322   86.24644
                          1.0        0.0        0.0        0.0        0.0
   5500     .0055  1145.25227 -214.67759  -930.5755 1145.25227 -214.67759  -930.5755 -67053.371 400187.936 -333134.57        0.0
                          0.0        0.0 1151.44194 -216.10413 -935.33686 -67057.308 400189.244 -333131.94 1367.54607 719.232734
                   -2086.7788 1359.92986 715.897906 -2075.8278 -467241.31 733322.505  -266081.2 -.18790272 .444000633 -.25614082
                   .112113E-5 -.23769E-6 -.95047E-6        0.0   76.35971   2.278934   2.168447   9.194833    8.74905    .247849
                        .1E-5    .042044    .017333    .166714     .38875   1.454654    .014872    .008779   4312.322   86.24644
                          1.0        0.0        0.0        0.0        0.0
   6000      .006  1066.49607 -24.550803 -1041.9453 1066.49607 -24.550803 -1041.9453 -132459.66 419292.747 -286833.07        0.0
                          0.0        0.0 1072.30684 -24.971221 -1047.3357 -132463.44  419293.44   -286830. 1097.27806 1022.36445
                   -2119.6425 1091.04687  1017.3945 -2108.4414 -551752.41 706125.819 -154373.41 -.24882824 .444694362 -.19591247
                    .11224E-5 -.25004E-7 -.11222E-5        0.0   76.35971   2.278934   2.168447   9.194833    8.74905    .247849
                        .1E-5    .042044    .017333    .166714     .38875   1.454654    .014872    .008779   4312.322   86.24644
                          1.0        0.0        0.0        0.0        0.0
   6500     .0065  961.476551 166.180354 -1127.6572 961.476551 166.180354 -1127.6572 -194604.37 428073.169  -233468.8        0.0
                          0.0        0.0 966.766996 166.776063 -1133.5457 -194607.89  428073.24 -233465.35 799.990933  1300.3218
                   -2100.3127 795.296197 1293.83756 -2089.1338 -622677.54  661541.97 -38864.427  -.3036265 .434438464 -.13085991
                     .9952E-6 .166853E-6 -.12865E-5        0.0   76.35971   2.278934   2.168447   9.194833    8.74905    .247849
                        .1E-5    .042044    .017333    .166714     .38875   1.454654    .014872    .008779   4312.322   86.24644
                          1.0        0.0        0.0        0.0        0.0
   7000      .007  832.783878 352.821146 -1185.6011 832.783878 352.821146 -1185.6011 -251957.27 426313.016 -174355.75        0.0
                          0.0        0.0  837.42319 354.419033 -1191.8411 -251960.44 426312.457 -174352.02 483.004157  1546.2601
                   -2029.2643 479.962732 1538.42227  -2018.385 -678270.29 600668.763  77601.523 -.35094861 .413485389 -.06258482
                   .918786E-6 .365867E-6 -.13129E-5        0.0   76.35971   2.278934   2.168447   9.194833    8.74905    .247849
                        .1E-5    .042044    .017333    .166714     .38875   1.454654    .014872    .008779   4312.322   86.24644
                          1.0        0.0        0.0        0.0        0.0
   7500     .0075  683.582227 530.771261 -1214.3546 683.582227 530.771261 -1214.3546 -303106.15  414055.62 -110949.47        0.0
                          0.0        0.0 687.457164 533.332409 -1220.7922 -303108.89 414054.446 -110945.55 154.124755 1754.12457
                   -1908.2493 152.810965 1745.12586 -1897.9368 -717161.77 525005.093 192156.675 -.38962975 .382351528 .007232716
                   .681001E-6 .566564E-6  -.1205E-5        0.0   76.35971   2.278934   2.168447   9.194833    8.74905    .247849
                        .1E-5    .042044    .017333    .166714     .38875   1.454654    .014872    .008779   4312.322   86.24644
                          1.0        0.0        0.0        0.0        0.0
   8000      .008  517.551567 695.654212 -1213.2051 517.551567 695.654212 -1213.2051 -346791.56 391602.807 -44811.241        0.0
                          0.0        0.0 520.566463 699.115696 -1219.6815  -346793.8  391601.04 -44807.245 -178.54923 1918.79718
                   -1740.2479 -178.10264 1908.85932 -1730.7567 -738394.36 436414.047 301980.315 -.41871705 .341802127 .076870933
                   .539426E-6 .772252E-6 -.13523E-5        0.0   76.35971   2.278934   2.168447   9.194833    8.74905    .247849
                        .1E-5    .042044    .017333    .166714     .38875   1.454654    .014872    .008779   4312.322   86.24644
                          1.0        0.0        0.0        0.0        0.0
   8500     .0085  338.776489 843.406888 -1182.1835 338.776489 843.406888 -1182.1835 -381937.79  359507.42 22430.3662        0.0
                          0.0        0.0 340.856602 847.682962 -1188.5399 -381939.48 359505.117 22434.3679 -506.82636 2036.22285
                   -1529.3965  -504.6304  2025.5904   -1520.96 -741445.21 337077.054 404368.159 -.43749382 .292837107 .144617264
                   .339479E-6 .833205E-6 -.11814E-5        0.0   76.35971   2.278934   2.168447   9.194833    8.74905    .247849
                        .1E-5    .042044    .017333    .166714     .38875   1.454654    .014872    .008779   4312.322   86.24644
                          1.0        0.0        0.0        0.0        0.0
   9000      .009  151.660072 970.393047 -1122.0515 151.660072 970.393047 -1122.0515 -407679.45 318559.778 89119.6763        0.0
                          0.0        0.0  152.75332 975.378145 -1128.1311 -407680.56 318556.985  89123.572 -822.62482 2103.50926
                   -1280.8844 -818.73297 2092.44457 -1273.7116 -726239.23 229440.102 496799.126 -.44549744 .236661163 .208801711
                   .150033E-6 .105571E-5 -.11056E-5        0.0   76.35971   2.278934   2.168447   9.194833    8.74905    .247849
                        .1E-5    .042044    .017333    .166714     .38875   1.454654    .014872    .008779   4312.322   86.24644
                          1.0        0.0        0.0        0.0        0.0
   9500     .0095  -39.192628 1073.48358 -1034.2918 -39.192628 1073.48358 -1034.2918 -423382.69  269768.13 153614.552        0.0
                          0.0        0.0 -39.112551 1079.05495 -1039.9452 -423383.18 269764.922 153618.258 -1118.1675 2119.00017
                   -1000.8327 -1112.6762 2107.77538 -995.09917 -693150.82 116153.578 576997.238 -.44253241 .174657499 .267844873
                     -.411E-7 .118005E-5 -.99308E-6        0.0   76.35971   2.278934   2.168447   9.194833    8.74905    .247849
                        .1E-5    .042044    .017333    .166714     .38875   1.454654    .014872    .008779   4312.322   86.24644
                          1.0        0.0        0.0        0.0        0.0
  10000       .01  -229.07671 1150.14311 -921.06396 -229.07671 1150.14311 -921.06396 -428660.84 214333.901 214326.945        0.0
                          0.0        0.0 -230.01189  1156.1641 -926.15112 -428660.71 214330.353 214330.352  -1386.176 2082.31522
                   -696.13923 -1379.2198 2071.20707 -691.98725 -642994.74 6.95647301 642987.788 -.42866995 .108353453 .320292695
                   -.23259E-6 .127243E-5 -.96718E-6        0.0   76.35971   2.278934   2.168447   9.194833    8.74905    .247849
                        .1E-5    .042044    .017333    .166714     .38875   1.454654    .014872    .008779   4312.322   86.24644
                          1.0        0.0        0.0        0.0        0.0
  10500     .0105  -413.32205 1198.48021 -785.15866 -413.32205 1198.48021 -785.15866 -423383.95 153622.056 269761.887        0.0
                          0.0        0.0 -415.24968 1204.80267 -789.55403 -423383.18 153618.258 269764.922 -1620.0523  1994.3567
                   -374.30436 -1611.8023 1983.63887 -371.83661   -577006. -116139.83 693145.833 -.40425363 .039381773 .364855478
                   -.43906E-6 .119307E-5 -.77824E-6        0.0   76.35971   2.278934   2.168447   9.194833    8.74905    .247849
                        .1E-5    .042044    .017333    .166714     .38875   1.454654    .014872    .008779   4312.322   86.24644
                          1.0        0.0        0.0        0.0        0.0
  11000      .011   -587.3928 1217.30834 -629.91547  -587.3928 1217.30834 -629.91547 -407681.93 89127.5318 318554.409        0.0
                          0.0        0.0 -590.26411 1223.77634 -633.51222 -407680.56  89123.572 318556.985 -1814.0404 1857.28855
                   -43.248102 -1804.7011 1847.22382 -42.522668 -496809.47 -229426.88 726236.343 -.36988143 -.03056015 .400432152
                   -.61617E-6 .128489E-5 -.65117E-6        0.0   76.35971   2.278934   2.168447   9.194833    8.74905    .247849
                        .1E-5    .042044    .017333    .166714     .38875   1.454654    .014872    .008779   4312.322   86.24644
                          1.0        0.0        0.0        0.0        0.0
  11500     .0115   -746.9983 1206.16186 -459.16374  -746.9983 1206.16186 -459.16374 -381941.44 22438.3841 359503.049        0.0
                          0.0        0.0 -750.73905 1212.61542 -461.87681 -381939.48 22434.3679 359505.117 -1963.3545 1674.49223
                   288.862243 -1953.1602  1665.3256 287.834559 -404379.82 -337064.66 741444.486 -.32640242 -.09974965 .426149359
                   -.73347E-6  .12331E-5 -.48103E-6        0.0   76.35971   2.278934   2.168447   9.194833    8.74905    .247849
                        .1E-5    .042044    .017333    .166714     .38875   1.454654    .014872    .008779   4312.322   86.24644
                          1.0        0.0        0.0        0.0        0.0
  12000      .012  -888.20766 1165.31604 -277.10694 -888.20766 1165.31604 -277.10694 -346796.27 -44803.266 391599.533        0.0
                          0.0        0.0 -892.73415 1171.59709 -278.86221  -346793.8 -44807.245  391601.04 -2064.3312 1450.45931
                   613.871934 -2053.5237 1442.42298 611.100725   -301993.  -436402.8 738395.799 -.27488664  -.1664822 .441374916
                   -.98284E-6 .111408E-5 -.26342E-6        0.0   76.35971   2.278934   2.168447   9.194833    8.74905    .247849
                        .1E-5    .042044    .017333    .166714     .38875   1.454654    .014872    .008779   4312.322   86.24644
                          1.0        0.0        0.0        0.0        0.0
  12500     .0125  -1007.5532 1095.77566 -88.223286 -1007.5532 1095.77566 -88.223286 -303111.83 -110941.71 414053.541        0.0
                          0.0        0.0 -1012.7453 1101.72865 -88.985131 -303108.89 -110945.55 414054.446 -2114.4739 1190.71378
                   923.760163 -2103.3288 1183.99895   919.3299 -192170.12 -524995.25  717165.37 -.21660133 -.22911634 .445730152
                   -.10153E-5 .119547E-5 -.89014E-7        0.0   76.35971   2.278934   2.168447   9.194833    8.74905    .247849
                        .1E-5    .042044    .017333    .166714     .38875   1.454654    .014872    .008779   4312.322   86.24644
                          1.0        0.0        0.0        0.0        0.0
  13000      .013  -1102.0804 999.253985 102.827283 -1102.0804 999.253985 102.827283 -251963.77  -174348.4 426312.177        0.0
                          0.0        0.0 -1107.8183 1004.73361 103.085161 -251960.44 -174352.02 426312.457 -2112.5519 901.648446
                    1210.9035 -2101.3344 896.426702 1204.90773 -77615.366 -600660.58 678275.947 -.15298323 -.28610843 .439111252
                   -.11632E-5 .104475E-5 .110391E-6        0.0   76.35971   2.278934   2.168447   9.194833    8.74905    .247849
                        .1E-5    .042044    .017333    .166714     .38875   1.454654    .014872    .008779   4312.322   86.24644
                          1.0        0.0        0.0        0.0        0.0
  13500     .0135  -1169.4754  878.12706 291.348403 -1169.4754  878.12706 291.348403 -194611.53 -233462.06 428073.592        0.0
                          0.0        0.0 -1175.6124 882.997728 292.614884 -194607.89 -233465.35  428073.24 -2058.6101 590.382844
                   1468.22723 -2047.6025 586.778657 1460.82385 38850.5296 -661535.66 622685.126 -.08559734 -.33605573 .421679113
                   -.12637E-5 .896771E-6  .32087E-6        0.0   76.35971   2.278934   2.168447   9.194833    8.74905    .247849
                        .1E-5    .042044    .017333    .166714     .38875   1.454654    .014872    .008779   4312.322   86.24644
                          1.0        0.0        0.0        0.0        0.0
  14000      .014   -1208.075 735.377952  472.69658  -1208.075 735.377952  472.69658 -132467.31 -286827.11 419294.417        0.0
                          0.0        0.0 -1214.4625 739.519844 474.942655 -132463.44   -286830.  419293.44 -1953.9823  264.57719
                   1689.40512 -1943.4529 262.681372 1680.77154 154359.799 -706121.52 551761.724 -.01610516 -.37772775 .393865627
                   -.11584E-5   .8047E-6 .475178E-6        0.0   76.35971   2.278934   2.168447   9.194833    8.74905    .247849
                        .1E-5    .042044    .017333    .166714     .38875   1.454654    .014872    .008779   4312.322   86.24644
                          1.0        0.0        0.0        0.0        0.0
  14500     .0145  -1216.9253  574.52131 642.403597 -1216.9253  574.52131 642.403597 -67061.294 -333129.52 400190.812        0.0
                          0.0        0.0 -1223.4069 577.832377 645.574229 -67057.308 -333131.94 400189.244 -1801.2393 -67.741852
                   1868.98112 -1791.4466 -67.882286 1859.32893 266068.225 -733320.33 467252.106 .053785086 -.41009974 .356351322
                   -.11869E-5 .637328E-6 .662927E-6        0.0   76.35971   2.278934   2.168447   9.194833    8.74905    .247849
                        .1E-5    .042044    .017333    .166714     .38875   1.454654    .014872    .008779   4312.322   86.24644
                          1.0        0.0        0.0        0.0        0.0
  % % % % % %   Suspended simulation;  plot data space exhausted;  SPY SPACE is required.   LIMBUF =  840000.
  % % % % % %   Suspended simulation;  plot data space exhausted;  SPY SPACE is required.   LIMBUF =  840000.
  +++  Time-sharing disabled.   Send  user-keyed interrupt to silence alarm.
   Current values.  INDBUF  INDBEG  LIMBUF  MFLUSH  NUMDCD  KCARD1  KCARD2
                    839994      50  840000    1000     230       1     231
Plot timespan now in memory (in sec) = 0.00000000E+00   1.49990000E-02
   ++++  Begin plot-data copy from memory to disk.   MFLUSH, INDBUF, N4, Tbeg,  Tend = 1001  839994       1  -1.00000E+00
1.00000E+19
  15000      .015  -1195.8117 399.518538 796.293996 -1195.8117 399.518538 796.293996 -4.0144813 -371229.18 371233.188        0.0
                          0.0        0.0 -1202.2245 401.916912   800.3082 -.61533E-6 -371231.06  371231.06 -1604.1414 -398.39129
                   2002.53268 -1595.3302 -396.77546  1992.1057 371225.161 -742462.36 371237.203  .12234946 -.43237269 .310065239
                   -.13136E-5 .403794E-6 .805012E-6        0.0   76.35971   2.278934   2.168447   9.194833    8.74905    .247849
                        .1E-5    .042044    .017333    .166714     .38875   1.454654    .014872    .008779   4312.322   86.24644
                          1.0        0.0        0.0        0.0        0.0
  15500     .0155  -1145.2531 214.677461 930.575347 -1145.2531 214.677461 930.575347 67053.3647 -400187.94 333134.571        0.0
                          0.0        0.0 -1151.4438 216.104695  935.33857 67057.3081 -400189.24 333131.936 -1367.5485 -719.23387
                   2086.78234 -1359.9306 -715.89789 2075.82847 467241.302 -733322.51 266081.206 .187902082 -.44399994 .256142443
                   -.13025E-5 .221973E-6 .101188E-5        0.0   76.35971   2.278934   2.168447   9.194833    8.74905    .247849
                        .1E-5    .042044    .017333    .166714     .38875   1.454654    .014872    .008779   4312.322   86.24644
                          1.0        0.0        0.0        0.0        0.0
  16000      .016  -1066.4964 24.5508756 1041.94509 -1066.4964 24.5508756 1041.94509 132459.668 -419292.74 286833.076        0.0
                          0.0        0.0 -1072.3068 24.9713286 1047.33538 132463.443 -419293.44 286829.997 -1097.2781 -1022.3641
                   2119.64217 -1091.0473 -1017.3942  2108.4415 551752.411 -706125.82 154373.408 .248828243 -.44469422 .195912708
                   -.12022E-5 .255434E-7 .112766E-5        0.0   76.35971   2.278934   2.168447   9.194833    8.74905    .247849
                        .1E-5    .042044    .017333    .166714     .38875   1.454654    .014872    .008779   4312.322   86.24644
                          1.0        0.0        0.0        0.0        0.0
  16500     .0165  -961.47595 -166.18031 1127.65636 -961.47595 -166.18031 1127.65636 194604.372 -428073.17 233468.798        0.0
                          0.0        0.0 -966.76806 -166.77639 1133.54542 194607.888 -428073.24 233465.353 -799.99168 -1300.3218
                   2100.31348 -795.29563 -1293.8367 2089.13231 622677.543 -661541.97 38864.4264 .303626689 -.43443874 .130859306
                   -.96892E-6 -.16022E-6 .121875E-5        0.0   76.35971   2.278934   2.168447   9.194833    8.74905    .247849
                        .1E-5    .042044    .017333    .166714     .38875   1.454654    .014872    .008779   4312.322   86.24644
                          1.0        0.0        0.0        0.0        0.0
  17000      .017  -832.78403 -352.81971 1185.60322 -832.78403 -352.81971 1185.60322 251957.274 -426313.02 174355.743        0.0
                          0.0        0.0 -837.42356 -354.41828 1191.84203 251960.441 -426312.46 174352.016 -483.00527 -1546.2603
                   2029.26559 -479.96431 -1538.4229 2018.38724 678270.291 -600668.76 -77601.531 .350949405 -.41348543 .062584195
                   -.82527E-6 -.36102E-6 .127207E-5        0.0   76.35971   2.278934   2.168447   9.194833    8.74905    .247849
                        .1E-5    .042044    .017333    .166714     .38875   1.454654    .014872    .008779   4312.322   86.24644
                          1.0        0.0        0.0        0.0        0.0
  17500     .0175  -683.58413 -530.77141 1214.35517 -683.58413 -530.77141 1214.35517 303106.151 -414055.62 110949.471        0.0
                          0.0        0.0 -687.45985 -533.33294 1220.79264 303108.891 -414054.45 110945.554 -154.12691 -1754.1256
                   1908.25249 -152.81272 -1745.1266  1897.9393 717161.772 -525005.09 -192156.68 .389629467 -.38235139 -.00723228
                   -.71301E-6 -.56405E-6 .125798E-5        0.0   76.35971   2.278934   2.168447   9.194833    8.74905    .247849
                        .1E-5    .042044    .017333    .166714     .38875   1.454654    .014872    .008779   4312.322   86.24644
                          1.0        0.0        0.0        0.0        0.0
  18000      .018   -517.5523 -695.65361 1213.20608  -517.5523 -695.65361 1213.20608 346791.551  -391602.8 44811.2492        0.0
                          0.0        0.0 -520.56701 -699.11514 1219.68238 346793.795 -391601.04 44807.2448 178.548124 -1918.7975
                   1740.24939  178.10131 -1908.8597 1730.75838 738394.355 -436414.05  -301980.3 .418716982 -.34180222 -.07687105
                   -.58787E-6 -.76754E-6 .127964E-5        0.0   76.35971   2.278934   2.168447   9.194833    8.74905    .247849
                        .1E-5    .042044    .017333    .166714     .38875   1.454654    .014872    .008779   4312.322   86.24644
                          1.0        0.0        0.0        0.0        0.0
  18500     .0185  -338.77687 -843.40668 1182.18364 -338.77687 -843.40668 1182.18364 381937.783 -359507.42 -22430.362        0.0
                          0.0        0.0  -340.8569 -847.68269 1188.54007 381939.485 -359505.12 -22434.368 506.825794 -2036.2228
                   1529.39697  504.62981 -2025.5903 1520.96052 741445.206 -337077.06 -404368.15 .437493599 -.29283692 -.14461679
                   -.36959E-6 -.85415E-6 .131142E-5        0.0   76.35971   2.278934   2.168447   9.194833    8.74905    .247849
                        .1E-5    .042044    .017333    .166714     .38875   1.454654    .014872    .008779   4312.322   86.24644
                          1.0        0.0        0.0        0.0        0.0
  19000      .019  -151.66071 -970.39268 1122.05217 -151.66071 -970.39268 1122.05217  407679.45 -318559.78 -89119.674        0.0
                          0.0        0.0 -152.75481 -975.37813 1128.13164 407680.557 -318556.98 -89123.572 822.623311 -2103.5098
                   1280.88646 818.731975 -2092.4448 1273.71287 726239.227  -229440.1 -496799.12 .445498227  -.2366609 -.20880181
                   -.16151E-6 -.10179E-5 .126264E-5        0.0   76.35971   2.278934   2.168447   9.194833    8.74905    .247849
                        .1E-5    .042044    .017333    .166714     .38875   1.454654    .014872    .008779   4312.322   86.24644
                          1.0        0.0        0.0        0.0        0.0
  19500     .0195  39.1913857 -1073.4833 1034.29271 39.1913857 -1073.4833 1034.29271 423382.691 -269768.13 -153614.56        0.0
                          0.0        0.0 39.1099147 -1079.0551 1039.94626  423383.18 -269764.92 -153618.26 1118.16504 -2119.0014
                   1000.83635 1112.67466  -2107.776  995.10132 693150.822 -116153.57 -576997.25 .442532267 -.17465775  -.2678452
                    .43336E-7 -.12036E-5 .104017E-5        0.0   76.35971   2.278934   2.168447   9.194833    8.74905    .247849
                        .1E-5    .042044    .017333    .166714     .38875   1.454654    .014872    .008779   4312.322   86.24644
                          1.0        0.0        0.0        0.0        0.0
  20000       .02  229.077727 -1150.1421 921.064416 229.077727 -1150.1421 921.064416 428660.845  -214333.9 -214326.95        0.0
                          0.0        0.0 230.012428 -1156.1629 926.152388 428660.705 -214330.35 -214330.35 1386.17529 -2082.3152
                    696.13996 1379.21983 -2071.2065 691.986689 642994.746 -6.9555833 -642987.79 .428670483 -.10835332 -.32029284
                   .247513E-6 -.13015E-5 .947795E-6        0.0   76.35971   2.278934   2.168447   9.194833    8.74905    .247849
                        .1E-5    .042044    .017333    .166714     .38875   1.454654    .014872    .008779   4312.322   86.24644
                          1.0        0.0        0.0        0.0        0.0
  20500     .0205  413.324086 -1198.4806 785.155949 413.324086 -1198.4806 785.155949 423383.946 -153622.06 -269761.89        0.0
                          0.0        0.0 415.249046 -1204.8029 789.553665  423383.18 -153618.26 -269764.92  1620.0519 -1994.3565
                   374.304619 1611.80473 -1983.6366 371.831863 577006.004 116139.833 -693145.84 .404252704 -.03938154 -.36485443
                   .457804E-6 -.11853E-5 .787782E-6        0.0   76.35971   2.278934   2.168447   9.194833    8.74905    .247849
                        .1E-5    .042044    .017333    .166714     .38875   1.454654    .014872    .008779   4312.322   86.24644
                          1.0        0.0        0.0        0.0        0.0
  21000      .021  587.394689 -1217.3082 629.913852 587.394689 -1217.3082 629.913852 407681.933  -89127.53  -318554.4        0.0
                          0.0        0.0 590.263391 -1223.7748 633.514778 407680.557 -89123.572 -318556.98 1814.03817 -1857.2896
                   43.2513875 1804.70289 -1847.2221 42.5191629 496809.462 229426.875 -726236.34 .369881497 .030560257 -.40043201
                   .643772E-6 -.13261E-5 .708038E-6        0.0   76.35971   2.278934   2.168447   9.194833    8.74905    .247849
[...]
                        .1E-5    .042044    .017333    .166714     .38875   1.454654    .014872    .008779   4312.322   86.24644
                          1.0        0.0        0.0        0.0        0.0
 113000      .113   -253484.8 -178810.18 432294.979  -253484.8 -178810.18 432294.979 -253484.79 -178810.18 432294.978        0.0
                          0.0        0.0 -237115.09  -182308.3  419423.39 -251960.44 -174352.02 426312.457 -54806.788 -601731.69
                   656538.479 -74674.612 -611105.16 685779.775 -74674.611 -611105.16 685779.773 481.283683 -96.622781  -384.6609
                   -.25923E-3 -.19137E-3 .450015E-3        0.0   76.35971   2.278934   2.168447   9.194833    8.74905    .247849
                        .1E-5    .042044    .017333    .166714     .38875   1.454654    .014872    .008779   4312.322   86.24644
                          1.0        0.0        0.0        0.0        0.0
 113500     .1135   -190519.5 -233858.05 424377.555  -190519.5 -233858.05 424377.555  -190519.5 -233858.05 424377.555        0.0
                          0.0        0.0 -94660.221 -219303.11 313963.329 -194607.89 -233465.35  428073.24 124642.886 -533266.44
                    408623.55  43338.548 -658235.61 614897.058 43338.5486 -658235.61 614897.057 171.222718 -90.484815 -80.737903
                   -.21656E-3 -.24051E-3 .457168E-3        0.0   76.35971   2.278934   2.168447   9.194833    8.74905    .247849
                        .1E-5    .042044    .017333    .166714     .38875   1.454654    .014872    .008779   4312.322   86.24644
                          1.0        0.0        0.0        0.0        0.0
 114000      .114  -208553.16 -295142.28 503695.437 -208553.16 -295142.28 503695.437 -208553.16 -295142.28 503695.438        0.0
                          0.0        0.0 -155278.87 -281328.15 436607.025 -132463.44   -286830.  419293.44 126049.274 -717935.17
                   591885.899 86589.1253 -798837.72 712248.592 86589.1254 -798837.72 712248.593  -159.2026  -177.0401 336.242702
                   -.22668E-3 -.32432E-3 .522614E-3        0.0   76.35971   2.278934   2.168447   9.194833    8.74905    .247849
                        .1E-5    .042044    .017333    .166714     .38875   1.454654    .014872    .008779   4312.322   86.24644
                          1.0        0.0        0.0        0.0        0.0
 114500     .1145  -81016.577 -338090.03 419106.608 -81016.577 -338090.03 419106.608 -81016.577 -338090.03 419106.608        0.0
                          0.0        0.0 -79894.286 -344509.53 424403.818 -67057.308 -333131.94 400189.244 264615.249 -768913.35
                   504298.104 257073.455 -757196.64 500123.185 257073.455 -757196.64 500123.184 349.931331  -96.79474 -253.13659
                   -.88413E-4 -.38906E-3 .448614E-3        0.0   76.35971   2.278934   2.168447   9.194833    8.74905    .247849
                        .1E-5    .042044    .017333    .166714     .38875   1.454654    .014872    .008779   4312.322   86.24644
                          1.0        0.0        0.0        0.0        0.0
 115000      .115  -12197.527 -375946.79 388144.315 -12197.527 -375946.79 388144.315 -12197.526 -375946.79 388144.315        0.0
                          0.0        0.0 96837.5123 -367266.33 270428.818 .127058E-4 -371231.06  371231.06 464103.843 -637695.15
                   173591.306 363749.262  -764091.1 400341.842 363749.263  -764091.1 400341.841 296.329793 -29.407034 -266.92276
                   -.13108E-4 -.39437E-3 .414252E-3        0.0   76.35971   2.278934   2.168447   9.194833    8.74905    .247849
                        .1E-5    .042044    .017333    .166714     .38875   1.454654    .014872    .008779   4312.322   86.24644
                          1.0        0.0        0.0        0.0        0.0
 115500     .1155  62888.8167 -397230.39 334341.572 62888.8167 -397230.39 334341.572 62888.8162 -397230.39 334341.572        0.0
                          0.0        0.0 123608.847 -385103.63 261494.782 67057.3081 -400189.24 333131.936 508712.476 -646598.41
                   137885.935 460119.204 -731571.96 271452.755 460119.204 -731571.96 271452.756 -251.95298 -106.89496 358.847938
                   .659934E-4 -.41048E-3  .35882E-3        0.0   76.35971   2.278934   2.168447   9.194833    8.74905    .247849
                        .1E-5    .042044    .017333    .166714     .38875   1.454654    .014872    .008779   4312.322   86.24644
                          1.0        0.0        0.0        0.0        0.0
 116000      .116  145948.352 -417625.26 271676.912 145948.352 -417625.26 271676.912 145948.352 -417625.26 271676.912        0.0
                          0.0        0.0 67084.5171 -433964.38 366879.864 132463.443 -419293.44 286829.997 501048.897 -800844.24
                   299795.346 563573.616 -689302.18  125728.56 563573.616 -689302.18  125728.56  96.601612 -73.267751 -23.333861
                   .150306E-3 -.46769E-3 .288293E-3        0.0   76.35971   2.278934   2.168447   9.194833    8.74905    .247849
                        .1E-5    .042044    .017333    .166714     .38875   1.454654    .014872    .008779   4312.322   86.24644
                          1.0        0.0        0.0        0.0        0.0
 116500     .1165  183321.208  -433729.6 250408.387 183321.208  -433729.6 250408.387 183321.209  -433729.6 250408.386        0.0
                          0.0        0.0 189446.968 -444048.32 254601.355 194607.888 -428073.24 233465.353 633495.292 -698649.68
                   65154.3867 617050.803 -684137.98 67087.1786 617050.804 -684137.98 67087.1772  347.00639 32.8253608 -379.83175
                   .195911E-3 -.50425E-3 .250265E-3        0.0   76.35971   2.278934   2.168447   9.194833    8.74905    .247849
                        .1E-5    .042044    .017333    .166714     .38875   1.454654    .014872    .008779   4312.322   86.24644
                          1.0        0.0        0.0        0.0        0.0
 117000      .117   306630.65 -416510.78 109880.127  306630.65 -416510.78 109880.127  306630.65 -416510.78 109880.128        0.0
                          0.0        0.0 308171.908 -416116.12 107944.212 251960.441 -426312.46 174352.016 724288.028 -524060.33
                    -200227.7 723141.428 -526390.91 -196750.52 723141.428 -526390.91 -196750.52 -147.60261 5.16663742 142.435972
                   .343252E-3 -.42689E-3 .113159E-3        0.0   76.35971   2.278934   2.168447   9.194833    8.74905    .247849
                        .1E-5    .042044    .017333    .166714     .38875   1.454654    .014872    .008779   4312.322   86.24644
                          1.0        0.0        0.0        0.0        0.0
 117500     .1175  312153.482 -411909.96 99756.4739 312153.482 -411909.96 99756.4739 312153.482 -411909.96  99756.474        0.0
                          0.0        0.0  194161.93 -428960.78 234798.844 303108.891 -414054.45 110945.554 623122.706 -663759.62
                   40636.9138 724063.438 -511666.43 -212397.01 724063.437 -511666.43 -212397.01 -65.448123 -9.4831286 74.9312519
                   .369208E-3 -.40736E-3 .110805E-3        0.0   76.35971   2.278934   2.168447   9.194833    8.74905    .247849
                        .1E-5    .042044    .017333    .166714     .38875   1.454654    .014872    .008779   4312.322   86.24644
                          1.0        0.0        0.0        0.0        0.0
 118000      .118  309591.546 -401862.07  92270.529 309591.546 -401862.07  92270.529 309591.547 -401862.07 92270.5281        0.0
                          0.0        0.0 257349.502 -418372.87 161023.368 346793.795 -391601.04 44807.2447 675722.371 -579396.24
                   -96326.134 711453.621  -494132.6 -217321.02 711453.621  -494132.6 -217321.02 361.788876 92.0755112 -453.86439
                   .348388E-3 -.44829E-3 .993535E-4        0.0   76.35971   2.278934   2.168447   9.194833    8.74905    .247849
                        .1E-5    .042044    .017333    .166714     .38875   1.454654    .014872    .008779   4312.322   86.24644
                          1.0        0.0        0.0        0.0        0.0
 118500     .1185  456123.165 -350325.28 -105797.88 456123.165 -350325.28 -105797.88 456123.165 -350325.28 -105797.88        0.0
                          0.0        0.0 460293.874 -351678.98  -108614.9 381939.485 -359505.12 -22434.368 811972.851 -243064.08
                   -568908.77  806448.45  -244527.4 -561921.04  806448.45  -244527.4 -561921.05 94.1358063 123.241883 -217.37769
                   .493955E-3 -.35753E-3 -.10725E-3        0.0   76.35971   2.278934   2.168447   9.194833    8.74905    .247849
                        .1E-5    .042044    .017333    .166714     .38875   1.454654    .014872    .008779   4312.322   86.24644
                          1.0        0.0        0.0        0.0        0.0
 119000      .119  416801.975 -316311.61 -100490.37 416801.975 -316311.61 -100490.37 416801.975 -316311.61 -100490.37        0.0
                          0.0        0.0 368720.417 -318325.69 -50394.731 407680.557 -318556.98 -89123.572 687046.102 -267930.95
                   -419115.15 733113.583 -215821.24 -517292.34 733113.582 -215821.24 -517292.34 -140.02829 70.1373653 69.8909216
                   .461007E-3 -.31898E-3 -.11283E-3        0.0   76.35971   2.278934   2.168447   9.194833    8.74905    .247849
                        .1E-5    .042044    .017333    .166714     .38875   1.454654    .014872    .008779   4312.322   86.24644
                          1.0        0.0        0.0        0.0        0.0
 119500     .1195  395523.644 -277353.05  -118170.6 395523.644 -277353.05  -118170.6 395523.644 -277353.05  -118170.6        0.0
                          0.0        0.0 342742.902 -288404.72 -54338.184  423383.18 -269764.92 -153618.26  631147.62 -234066.53
                   -397081.09 672876.691 -159182.45 -513694.24 672876.691 -159182.45 -513694.24 218.517594 121.102528 -339.62012
                   .440645E-3 -.27488E-3 -.12217E-3        0.0   76.35971   2.278934   2.168447   9.194833    8.74905    .247849
                        .1E-5    .042044    .017333    .166714     .38875   1.454654    .014872    .008779   4312.322   86.24644
                          1.0        0.0        0.0        0.0        0.0
  % % % % % %   Suspended simulation;  plot data space exhausted;  SPY SPACE is required.   LIMBUF =  840000.
  % % % % % %   Suspended simulation;  plot data space exhausted;  SPY SPACE is required.   LIMBUF =  840000.
  +++  Time-sharing disabled.   Send  user-keyed interrupt to silence alarm.
   Current values.  INDBUF  INDBEG  LIMBUF  MFLUSH  NUMDCD  KCARD1  KCARD2
                    839994      50  840000    1007     230       1     231
Plot timespan now in memory (in sec) = 1.04985997E-01   1.19985000E-01
   ++++  Begin plot-data copy from memory to disk.   MFLUSH, INDBUF, N4, Tbeg,  Tend = 1008  839994       1  -1.00000E+00
1.00000E+19
 120000       .12  505458.676 -206917.66 -298541.01 505458.676 -206917.66 -298541.01 505458.677 -206917.66 -298541.02        0.0
                          0.0        0.0 525730.263 -208025.44 -317704.82 428660.705 -214330.35 -214330.35 733755.703 109679.383
                   -843435.09 712376.339 91623.3519 -803999.69 712376.339 91623.3532 -803999.69 240.841278 193.786339 -434.62762
                   .519559E-3 -.23378E-3 -.31438E-3        0.0   76.35971   2.278934   2.168447   9.194833    8.74905    .247849
                        .1E-5    .042044    .017333    .166714     .38875   1.454654    .014872    .008779   4312.322   86.24644
                          1.0        0.0        0.0        0.0        0.0

Extrema of output variables follow.   Order and column positioning are the same as for the preceding time-step loop output.
Variable maxima :  607288.833 461030.872 670753.077 607288.833 461030.872 670753.077 607288.832 461030.872 670753.077        0.0
                          0.0        0.0 843730.525 513795.789 882080.688 428660.705 428660.703 428660.703 .1107079E7 .1390423E7
                   .1630442E7 889641.787 996891.881 .1241382E7 889641.788 996891.881 .1241382E7 1392.14287 433.294059 1840.13495
                   .722471E-3 .526482E-3 .796974E-3        0.0   76.35971   2.278934   2.168447   9.194833    8.74905    .247849
                        .1E-5    .042044    .017333    .166714     .38875   1.454654    .014872    .008779   4312.322   86.24644
                          1.0        0.0        0.0        0.0        0.0
Times of maxima :     .059851    .046528    .052148    .059851    .046528    .052148    .059851    .046528    .052148        0.0
                          0.0        0.0    .059616    .046439    .053951        0.0    .006667    .113333    .058043    .044653
                      .050364    .057773    .064743    .052146    .057773    .064743    .052146    .049127    .042713    .048337
                      .059852    .066837    .052145        0.0        0.0        0.0        0.0        0.0        0.0        0.0
                          0.0        0.0        0.0        0.0        0.0        0.0        0.0        0.0        0.0        0.0
                          0.0        0.0        0.0        0.0        0.0
Variable minima :   -635483.8 -451074.57 -708242.88  -635483.8 -451074.57 -708242.88  -635483.8 -451074.57 -708242.88        0.0
                          0.0        0.0 -892213.25 -498874.59  -996231.5 -428660.71  -428660.7  -428660.7 -.116991E7 -.124067E7
                   -.170878E7 -885750.88  -961165.6 -.123587E7 -885750.88  -961165.6 -.123587E7 -1603.4743 -366.09263 -1648.0794
                   -.75452E-3 -.52451E-3 -.81891E-3        0.0   76.35971   2.278934   2.168447   9.194833    8.74905    .247849
                        .1E-5    .042044    .017333    .166714     .38875   1.454654    .014872    .008779   4312.322   86.24644
                          1.0        0.0        0.0        0.0        0.0
Times of minima :     .050591    .057008    .042799    .050591    .057008    .042799    .050591    .057008    .042799        0.0
                          0.0        0.0    .048728    .057299    .043077        .01    .016667    .103333    .048718    .053955
                      .043075     .04845    .055371    .042795     .04845    .055371    .042795    .045039    .051977    .044244
                      .050589    .056986    .042801        0.0        0.0        0.0        0.0        0.0        0.0        0.0
                          0.0        0.0        0.0        0.0        0.0        0.0        0.0        0.0        0.0        0.0
                          0.0        0.0        0.0        0.0        0.0

Blank card terminating all plot cards.            |BLANK PLOT

Memory storage figures for the preceding, now-completed data case.  -------------------------------  Present   Program
A value of  "-9999"  indicates that no figure is available.         28-Feb-22  19:51:19              figure     limit  (name)
     Size List 1.   Number of electric network nodes.                                                   37      6000  (LBUS)
     Size List 2.   Number of electric network branches.                                                39     10000  (LBRNCH)
     Size List 3.   Number of data values in R, L, C tables.                                            45    192000  (LDATA)
     Size List 4.   Number of electric network sources.                                                  3       900  (LEXCT)
     Size List 5.   Storage for [Y] and triangularized [Y].   No. times =    3     Factors =    66     189    420000  (LYMAT)
     Size List 6.   Number of entries in switch table.                  No. flops = 18                  21      1200  (LSWTCH)
     Size List 7.   Number of distinct ALPHANUMERIC data names plus program SPY variables.              25     15000  (LSIZE7)
     Size List 8.   History points of distributed lines.                                              1146    120000  (LPAST)
     Size List 9.   Number of nonlinear elements.                                                        0      2250  (LNONL)
     Size List 10.  Points of nonlinear characteristics.                                                 0      3800  (LCHAR)
     Size List 11.  Number of Type-59 S.M. outputs.                                                      0       720  (LSMOUT)
     Size List 12.  Total number of EMTP output variables.                                              55      2000  (LSIZ12)
     Size List 13.  Working space for batch/SPY plotting.                                            -9999     72800  (LSIZ13)
     Size List 14.  S.M./U.M. connections to TACS.                                                   -9999       510  (LBSTAC)
     Size List 15.  Character storage in bytes for MODELS.                                            3298     90000  (LCTACS)
     Size List 16.  Total number of Type-59 S.M. masses.                                                 0       800  (LIMASS)
     Size List 17.  Number of Type-59 Synchronous machines.                                              0        90  (LSYN)
     Size List 18.  Branch and switch power/energy outputs.                                              0       254  (MAXPE)
     Size List 19.  Total floating-point TACS table space.                                              23    120000  (LTACST)
     Size List 20.  Non-copied recursive convolution data.                                               0    100000  (LFSEM)
     Size List 21.  Total modal/phase [T] matrix storage.                                                9      3000  (LFD)
     Size List 22.  Total recursive convolution history.                                                 0     15000  (LHIST)
     Size List 23.  Giant vectors for renumbering, phasors;  also extrema accumulation.                  93    192000  (LSIZ23)
     Size List 24.  Peak phases of compensation for data.                                                0       120  (LCOMP)
     Size List 25.  Total table space for all U.M usage.                                             -9999     45000  (LSPCUM)
     Size List 26.  Square of max number of coupled phases.                                              9    260000  (LSIZ26)
     Size List 27.  Maximum number of MODELS top variables.                                             44       600  (LSIZ27)
     Size List 28.  MODELS.  Total work space is divided into INTEGER and REAL.  1st, REAL:           1780    210000  (LRTACS)
                             Second  and last,  statistics for INTEGER work space.                    6838         0  (LITACS)
     Size List 29.  RAM disk used by "TAPSAV" table saving (limit is "LABCOM" size LTLABL).          -9999       600  (LSIZ29)
     Size List 30.  Taku Noda frequency-dependent circuits.                                              0        19  (LSIZ30)
Timing figures characterizing central processor (CP) solution speed.  ----------------------------   CP sec  Wait sec  Real sec
     Data input time (through blank card ending branches) ....                                       0.000     0.000     0.000
     Node renumbering and phasor solution  ....                                                      0.016     0.000     0.016
     After phasor solution, but before time-step loop  ....                                          0.000     0.000     0.000
     Integration of equations (time-step loop)  ....                                                 0.844     0.000     0.844
     Plotting or STATISTICS termination overlays ....                                                0.000     0.000     0.000
                                                                                                    ---------------------------
                                                                                          Totals      0.859     0.000     0.859

