   ---   236   cards of disk file read into card cache cells  1   onward.
 Comment card is ignored.      |C   LBUS  LBRNCH   LDATA   LEXCT   LYMAT  LSWTCH
 Limit CIDEAL cards =   200    |CARDS        200 { Limit of CIDEAL will be 2 mor
 1st card (Lists  1-10).       |    6000   10000  192000     900  420000    120
 Comment card is ignored.      |C LSMOUT  LSIZ12  LSIZ13  LBSTAC  LCTACS  LIMASS
 2nd card (Lists 11-20).       |     720    2000   72800     510   90000     80
 Comment card is ignored.      |C    LFD   LHIST  LSIZ23   NCOMP  LSPCUM  LSIZ26
 3rd card (Lists 21-30).       |    3000   15000  192000     120   45000  26000
 4th card (Lists 31-32).       |     200     300     { Optional card for Lists
 Comment card is ignored.      |C  LWORK  LMARTI
 Supplemental offsets.         |  840000     742
 <===> Done with  "/"-card sorting by data class.    Remember that the source file appears different from interpreted input data.
Alternative Transients Program (ATP),  GNU Linux or DOS.  All rights reserved by Can/Am user group of Portland, Oregon, USA.
 Date (dd-mth-yy) and time of day (hh.mm.ss) = 28-Feb-22  19:13:42   Name of disk plot file is  pdraw6.3\bernal\energizacion698.pl4
Consult the 860-page ATP Rule Book of the Can/Am EMTP User Group in Portland,  Oregon, USA.  Source code date is 12 August 2008.
Total size of LABCOM tables = 10913436 INTEGER words.  31 VARDIM  List Sizes follow:  6002  10K  192K  900  420K  1200  15K
  120K  2250  3800  720  2K  72800  510  90K  800  90  254  120K  100K  3K  15K  192K  120  45K  260K  600  210K  1100  60  200
--------------------------------------------------+--------------------------------------------------------------------------------
Descriptive interpretation of input data cards.   |  Input data card images are shown below, all 80 columns, character by character
                                                  0         1         2         3         4         5         6         7         8
                                                  012345678901234567890123456789012345678901234567890123456789012345678901234567890
--------------------------------------------------+--------------------------------------------------------------------------------
Comment card.   NUMDCD = 1.                       |C data:C:\ATP\ATPDRAW6.3\BERNAL\ENERGIZACION698.ATP
Marker card preceding new EMTP data case.         |BEGIN NEW DATA CASE
Comment card.   NUMDCD = 3.                       |C --------------------------------------------------------
Comment card.   NUMDCD = 4.                       |C Generated by ATPDRAW  febrero, lunes 28, 2022
Comment card.   NUMDCD = 5.                       |C A Bonneville Power Administration program
Comment card.   NUMDCD = 6.                       |C by H. K. Høidalen at SEfAS/NTNU - NORWAY 1994-2016
Comment card.   NUMDCD = 7.                       |C --------------------------------------------------------
Comment card.   NUMDCD = 8.                       |C  dT  >< Tmax >< Xopt >< Copt ><Epsiln>
Misc. data.     1.000E-06   1.200E-01   5.000E+01 |   1.E-6     .12     50.
Misc. data.    500    1  0  1  1  0  0  0  0  0   |     500       1       0       1       1       0       0       0       0
  ///  Warning.  Nonzero XOPT or COPT differs from the power frequency of  6.00000000E+01  Hz.   Did the user really want this?
No TACS data,  but MODELS data begins (next).     |MODELS
      Another ordinary MODELS data card.          |OUTPUT
      Another ordinary MODELS data card.          |  AnVol
      Another ordinary MODELS data card.          |  LONG
      Another ordinary MODELS data card.          |  R0F
      Another ordinary MODELS data card.          |  R1F
      Another ordinary MODELS data card.          |  X0F
      Another ordinary MODELS data card.          |  X1F
      Another ordinary MODELS data card.          |  RDIVX
      Another ordinary MODELS data card.          |  RINSER
      Another ordinary MODELS data card.          |  CLOSE1
      Another ordinary MODELS data card.          |  RPpos
      Another ordinary MODELS data card.          |  RPcero
      Another ordinary MODELS data card.          |  LPpos
      Another ordinary MODELS data card.          |  LPcero
      Another ordinary MODELS data card.          |  CPpos
      Another ordinary MODELS data card.          |  CPcero
      Another ordinary MODELS data card.          |  Xp
      Another ordinary MODELS data card.          |  CR
      Another ordinary MODELS data card.          |  SIMET
      Another ordinary MODELS data card.          |  ENC1
      Another ordinary MODELS data card.          |  ENC2
      Another ordinary MODELS data card.          |  ENC1AS
      Another ordinary MODELS data card.          |  ENC2AS
      Another ordinary MODELS data card.          |MODEL DEFAULT
      Another ordinary MODELS data card.          |DATA AnVol,LONG,R0F,R1F,X0F,X1F,RDIVX,RINSER,CLOSE1,RPpos,RPcero,LPpos,LPcero
      Another ordinary MODELS data card.          |OUTPUT o1,o2,o3, o4, o5, o6, o7, o8, o9, o10, o11, o12, o13
      Another ordinary MODELS data card.          |VAR o1,o2,o3, o4, o5, o6, o7, o8, o9, o10, o11, o12, o13
      Another ordinary MODELS data card.          |INIT
      Another ordinary MODELS data card.          |  o1:=AnVol
      Another ordinary MODELS data card.          |  o2:=LONG
      Another ordinary MODELS data card.          |  o3:=R0F
      Another ordinary MODELS data card.          |  o4:=R1F
      Another ordinary MODELS data card.          |  o5:=X0F
      Another ordinary MODELS data card.          |  O6:=X1F
      Another ordinary MODELS data card.          |  o7:=RDIVX
      Another ordinary MODELS data card.          |  o8:=RINSER
      Another ordinary MODELS data card.          |  o9:=CLOSE1
      Another ordinary MODELS data card.          |  o10:=RPpos
      Another ordinary MODELS data card.          |  o11:=RPcero
      Another ordinary MODELS data card.          |  o12:=LPpos
      Another ordinary MODELS data card.          |  o13:=LPcero
      Another ordinary MODELS data card.          |
      Another ordinary MODELS data card.          |ENDINIT
      Another ordinary MODELS data card.          |EXEC
      Another ordinary MODELS data card.          |ENDEXEC
      Another ordinary MODELS data card.          |ENDMODEL
      Another ordinary MODELS data card.          |MODEL DEFAULT1
      Another ordinary MODELS data card.          |DATA CPpos,CPcero,Xp,CR,SIMET,ENC1,ENC2,ENC1AS,ENC2AS
      Another ordinary MODELS data card.          |OUTPUT o1, o2, o3, o4, o5, o6, o7, o8, o9
      Another ordinary MODELS data card.          |VAR o1, o2, o3, o4, o5, o6, o7, o8, o9
      Another ordinary MODELS data card.          |INIT
      Another ordinary MODELS data card.          |  o1:=CPpos
      Another ordinary MODELS data card.          |  o2:=CPcero
      Another ordinary MODELS data card.          |  o3:=Xp
      Another ordinary MODELS data card.          |  o4:=CR
      Another ordinary MODELS data card.          |  o5:=SIMET
      Another ordinary MODELS data card.          |  o6:=ENC1
      Another ordinary MODELS data card.          |  o7:=ENC2
      Another ordinary MODELS data card.          |  o8:=ENC1AS
      Another ordinary MODELS data card.          |  o9:=ENC2AS
      Another ordinary MODELS data card.          |
      Another ordinary MODELS data card.          |ENDINIT
      Another ordinary MODELS data card.          |EXEC
      Another ordinary MODELS data card.          |ENDEXEC
      Another ordinary MODELS data card.          |ENDMODEL
      Another ordinary MODELS data card.          |USE DEFAULT AS DEFAULT
      Another ordinary MODELS data card.          |DATA
      Another ordinary MODELS data card.          |  AnVol:=      0.0
      Another ordinary MODELS data card.          |  LONG:= 109.9067
      Another ordinary MODELS data card.          |  R0F:= 1.701778
      Another ordinary MODELS data card.          |  R1F:= 1.420578
      Another ordinary MODELS data card.          |  X0F:= 11.80625
      Another ordinary MODELS data card.          |  X1F:= 9.855399
      Another ordinary MODELS data card.          |  RDIVX:= 0.144142
      Another ordinary MODELS data card.          |  RINSER:=     360.
      Another ordinary MODELS data card.          |  CLOSE1:= 0.046293
      Another ordinary MODELS data card.          |  RPpos:= 0.029775
      Another ordinary MODELS data card.          |  RPcero:= 0.248179
      Another ordinary MODELS data card.          |  LPpos:= 0.354035
      Another ordinary MODELS data card.          |  LPcero:= 1.340466
      Another ordinary MODELS data card.          |OUTPUT
      Another ordinary MODELS data card.          |  AnVol:=o1
      Another ordinary MODELS data card.          |  LONG:=o2
      Another ordinary MODELS data card.          |  R0F:=o3
      Another ordinary MODELS data card.          |  R1F:=o4
      Another ordinary MODELS data card.          |  X0F:=o5
      Another ordinary MODELS data card.          |  X1F:=o6
      Another ordinary MODELS data card.          |  RDIVX:=o7
      Another ordinary MODELS data card.          |  RINSER:=o8
      Another ordinary MODELS data card.          |  CLOSE1:=o9
      Another ordinary MODELS data card.          |  RPpos:=o10
      Another ordinary MODELS data card.          |  RPcero:=o11
      Another ordinary MODELS data card.          |  LPpos:=o12
      Another ordinary MODELS data card.          |  LPcero:=o13
      Another ordinary MODELS data card.          |ENDUSE
      Another ordinary MODELS data card.          |USE DEFAULT1 AS DEF
      Another ordinary MODELS data card.          |DATA
      Another ordinary MODELS data card.          |  CPpos:= 0.014643
      Another ordinary MODELS data card.          |  CPcero:= 0.006506
      Another ordinary MODELS data card.          |  Xp:= 3042.903
      Another ordinary MODELS data card.          |  CR:= 60.85806
      Another ordinary MODELS data card.          |  SIMET:=      0.0
      Another ordinary MODELS data card.          |  ENC1:=      0.0
      Another ordinary MODELS data card.          |  ENC2:=      0.0
      Another ordinary MODELS data card.          |  ENC1AS:=      0.0
      Another ordinary MODELS data card.          |  ENC2AS:=      0.0
      Another ordinary MODELS data card.          |OUTPUT
      Another ordinary MODELS data card.          |  CPpos:=o1
      Another ordinary MODELS data card.          |  CPcero:=o2
      Another ordinary MODELS data card.          |  Xp:=o3
      Another ordinary MODELS data card.          |  CR:=o4
      Another ordinary MODELS data card.          |  SIMET:=o5
      Another ordinary MODELS data card.          |  ENC1:=o6
      Another ordinary MODELS data card.          |  ENC2:=o7
      Another ordinary MODELS data card.          |  ENC1AS:=o8
      Another ordinary MODELS data card.          |  ENC2AS:=o9
      Another ordinary MODELS data card.          |ENDUSE
      Another ordinary MODELS data card.          |RECORD
      Another ordinary MODELS data card.          |  DEFAULT.o1 AS AnVOL
      Another ordinary MODELS data card.          |  DEFAULT.o2 AS LONG
      Another ordinary MODELS data card.          |  DEFAULT.o3 AS R0F
      Another ordinary MODELS data card.          |  DEFAULT.o4 AS R1F
      Another ordinary MODELS data card.          |  DEFAULT.o5 AS X0F
      Another ordinary MODELS data card.          |  DEFAULT.o6 AS X1F
      Another ordinary MODELS data card.          |  DEFAULT.o7 AS RDIVX
      Another ordinary MODELS data card.          |  DEFAULT.o8 AS RINSER
      Another ordinary MODELS data card.          |  DEFAULT.o9 AS CLOSE1
      Another ordinary MODELS data card.          |  DEFAULT.o10 AS RPpos
      Another ordinary MODELS data card.          |  DEFAULT.o11 AS RPcero
      Another ordinary MODELS data card.          |  DEFAULT.o12 AS LPpos
      Another ordinary MODELS data card.          |  DEFAULT.o13 AS LPcero
      Another ordinary MODELS data card.          |  DEF.o1 AS CPpos
      Another ordinary MODELS data card.          |  DEF.o2 AS CPcero
      Another ordinary MODELS data card.          |  DEF.o3 AS Xp
      Another ordinary MODELS data card.          |  DEF.o4 AS CR
      Another ordinary MODELS data card.          |  DEF.o5 AS SIMET
      Another ordinary MODELS data card.          |  DEF.o6 AS ENC1
      Another ordinary MODELS data card.          |  DEF.o7 AS ENC2
      Another ordinary MODELS data card.          |  DEF.o8 AS ENC1AS
      Another ordinary MODELS data card.          |  DEF.o9 AS ENC2AS
Termination of data for Laurent Dube`s MODELS.    |ENDMODELS
Comment card.   NUMDCD = 153.                     |C        1         2         3         4         5         6         7         8
Comment card.   NUMDCD = 154.                     |C 345678901234567890123456789012345678901234567890123456789012345678901234567890
Optional blank card follows last of MODELS data.  |BLANK MODELS
Comment card.   NUMDCD = 156.                     |C < n1 >< n2 ><ref1><ref2>< R  >< L  >< C  >
Comment card.   NUMDCD = 157.                     |C < n1 >< n2 ><ref1><ref2>< R  >< A  >< B  ><Leng><><>0
1st of coupled R-L.   1.70180E+00  3.75805E-02    |51IFUENASB1A              1.701811.806247317
2nd coil. 1.421E+00 3.137E-02 0.000E+00 0.000E+00 |52IFUENBSB1B              1.42069.8553993181
Zca, Zcc= 9.373E-02 2.070E-03 1.514E+00 3.344E-02 |53IFUENCSB1C
Series R-L-C.   1.000E+09  0.000E+00  0.000E+00   |  SB1A                      1.E9                                               0
Series R-L-C.   1.000E+09  0.000E+00  0.000E+00   |  SB1B                      1.E9                                               0
Series R-L-C.   1.000E+09  0.000E+00  0.000E+00   |  SB1C                      1.E9                                               0
Series R-L-C.   1.000E+09  0.000E+00  0.000E+00   |  RSNSHA                    1.E9                                               0
Series R-L-C.   1.000E+09  0.000E+00  0.000E+00   |  RSNSHB                    1.E9                                               0
Series R-L-C.   1.000E+09  0.000E+00  0.000E+00   |  RSNSHC                    1.E9                                               0
Series R-L-C.   1.000E+09  0.000E+00  0.000E+00   |  RSNNHA                    1.E9                                               0
Series R-L-C.   1.000E+09  0.000E+00  0.000E+00   |  RSNNHB                    1.E9                                               0
Series R-L-C.   1.000E+09  0.000E+00  0.000E+00   |  RSNNHC                    1.E9                                               0
Series R-L-C.   1.000E+09  0.000E+00  0.000E+00   |  SE2A                      1.E9                                               0
Series R-L-C.   1.000E+09  0.000E+00  0.000E+00   |  SE2B                      1.E9                                               0
Series R-L-C.   1.000E+09  0.000E+00  0.000E+00   |  SE2C                      1.E9                                               0
Series R-L-C.   2.500E+02  0.000E+00  3.000E-10   |  X0001B                    250.       .0003                                   0
Series R-L-C.   2.500E+02  0.000E+00  3.000E-10   |  X0002B                    250.       .0003                                   0
Series R-L-C.   1.000E-06  0.000E+00  0.000E+00   |  X0001ALN1A               1.E-6                                               0
Series R-L-C.   1.000E-06  0.000E+00  0.000E+00   |  SB1A  X0002A             1.E-6                                               0
Series R-L-C.   1.000E-06  0.000E+00  0.000E+00   |  X0001BLN1B               1.E-6                                               0
Series R-L-C.   1.000E-06  0.000E+00  0.000E+00   |  SB1B  X0002B             1.E-6                                               0
Series R-L-C.   1.000E-06  0.000E+00  0.000E+00   |  X0001CLN1C               1.E-6                                               0
Series R-L-C.   1.000E-06  0.000E+00  0.000E+00   |  SB1C  X0002C             1.E-6                                               0
Series R-L-C.   3.600E+02  0.000E+00  0.000E+00   |  XX0005X0002A              360.                                               0
Series R-L-C.   3.600E+02  0.000E+00  0.000E+00   |  XX0003X0002B              360.                                               0
Series R-L-C.   3.600E+02  0.000E+00  0.000E+00   |  XX0004X0002C              360.                                               0
Series R-L-C.   2.500E+02  0.000E+00  3.000E-10   |  X0001A                    250.       .0003                                   0
Series R-L-C.   1.000E+06  0.000E+00  0.000E+00   |  X0001AX0002A              1.E6                                               0
Series R-L-C.   1.000E+06  0.000E+00  0.000E+00   |  X0001BX0002B              1.E6                                               0
Series R-L-C.   1.000E+06  0.000E+00  0.000E+00   |  X0001CX0002C              1.E6                                               0
Series R-L-C.   2.500E+02  0.000E+00  3.000E-10   |  X0002C                    250.       .0003                                   0
Series R-L-C.   2.500E+02  0.000E+00  3.000E-10   |  X0002A                    250.       .0003                                   0
Series R-L-C.   2.500E+02  0.000E+00  3.000E-10   |  X0001C                    250.       .0003                                   0
Series R-L-C.   1.250E+02  0.000E+00  6.000E-10   |  X0001AX0002A              125.       .0006                                   0
Series R-L-C.   1.250E+02  0.000E+00  6.000E-10   |  X0001BX0002B              125.       .0006                                   0
Series R-L-C.   1.250E+02  0.000E+00  6.000E-10   |  X0001CX0002C              125.       .0006                                   0
 2.482E-01 1.341E+00 6.510E-03 8.096E+02 5.793E-04|-1LN1A  VFF2A             .248181.3405.00651109.91 0 0                         0
 2.977E-02 3.540E-01 1.464E-02 2.774E+02 4.464E-04|-2LN1B  VFF2B             .02977.35403.01464109.91 0 0                         0
3rd or later transposed distributed phase.        |-3LN1C  VFF2C                                                                  0
Blank card ending branches.  IBR, NTOT = 39  31   |BLANK BRANCH
Comment card.   NUMDCD = 198.                     |C < n 1>< n 2>< Tclose ><Top/Tde ><   Ie   ><Vf/CLOP ><  type  >
Switch.  -1.00E+00  1.00E+01  0.00E+00  0.00E+00  |  LN1A  COMPA        -1.       10.                                             0
Switch.  -1.00E+00  1.00E+01  0.00E+00  0.00E+00  |  LN1B  COMPB        -1.       10.                                             0
Switch.  -1.00E+00  1.00E+01  0.00E+00  0.00E+00  |  LN1C  COMPC        -1.       10.                                             0
Switch.  -1.00E+00  1.00E+01  0.00E+00  0.00E+00  |  VFF2A RSNNHA       -1.       10.                                             0
Switch.  -1.00E+00  1.00E+01  0.00E+00  0.00E+00  |  VFF2B RSNNHB       -1.       10.                                             0
Switch.  -1.00E+00  1.00E+01  0.00E+00  0.00E+00  |  VFF2C RSNNHC       -1.       10.                                             0
Switch.   2.00E+00 -1.00E+00  0.00E+00  0.00E+00  |  VFF2A SE2A          2.       -1.                                             0
Switch.   2.00E+00 -1.00E+00  0.00E+00  0.00E+00  |  VFF2B SE2B          2.       -1.                                             0
Switch.   2.00E+00 -1.00E+00  0.00E+00  0.00E+00  |  VFF2C SE2C          2.       -1.                                             0
Switch.   4.63E-02  1.00E+03  0.00E+00  0.00E+00  |  X0001BXX0003.046293416      1.E3                                             0
Switch.   4.63E-02  1.00E+03  0.00E+00  0.00E+00  |  X0001CXX0004.046293416      1.E3                                             0
Switch.   5.38E-02  1.00E+03  0.00E+00  0.00E+00  |  XX0005X0002A.053793416      1.E3                                             0
Switch.   5.38E-02  1.00E+03  0.00E+00  0.00E+00  |  XX0003X0002B.053793416      1.E3                                             0
Switch.   5.38E-02  1.00E+03  0.00E+00  0.00E+00  |  XX0004X0002C.053793416      1.E3                                             0
Switch.   4.63E-02  1.00E+03  0.00E+00  0.00E+00  |  X0001AXX0005.046293416      1.E3                                             0
Permanently-closed switch used for metering.      |  VFUENAIFUENA                                        MEASURING                1
Permanently-closed switch used for metering.      |  VFUENBIFUENB                                        MEASURING                1
Permanently-closed switch used for metering.      |  VFUENCIFUENC                                        MEASURING                1
Permanently-closed switch used for metering.      |  COMPA RSNSHA                                        MEASURING                1
Permanently-closed switch used for metering.      |  COMPB RSNSHB                                        MEASURING                1
Permanently-closed switch used for metering.      |  COMPC RSNSHC                                        MEASURING                1
Blank card ending switches.   KSWTCH = 21.        |BLANK SWITCH
Comment card.   NUMDCD = 221.                     |C < n 1><>< Ampl.  >< Freq.  ><Phase/T0><   A1   ><   T1   >< TSTART >< TSTOP  >
Source.   4.29E+05  5.00E+01  0.00E+00 -1.00E+00  |14VFUENA  428660.705       50.                                     -1.      100.
Source.   4.29E+05  5.00E+01 -1.20E+02 -1.00E+00  |14VFUENB  428660.705       50.     -120.                           -1.      100.
Source.   4.29E+05  5.00E+01 -2.40E+02 -1.00E+00  |14VFUENC  428660.705       50.     -240.                           -1.      100.
Blank card ends electric sources.  KCONST = 3     |BLANK SOURCE
Pi-equivalent branches of distributed circuits are added to the table of List Size 3 between indices  40   and  45.

Sinusoidal steady-state phasor solution, branch by branch.   All flows are away from a bus,  and the real part,  magnitude,  or  "P"
is printed above the imaginary part,  the angle,  or  "Q".   The first solution frequency  =  5.00000000E+01  Hertz.
  Bus K                        Phasor  node  voltage              Phasor  branch  current               Power flow       Power loss
             Bus M         Rectangular            Polar          Rectangular            Polar            P  and  Q        P  and  Q

 IFUENA                    428660.705       428660.705      .42876549333165  .44578670343604      91897.459325609  .14115492505706
                                  0.0              0.0      .12200793698952       15.8840386      -26150.00414276        0.9792610

            SB1A      428661.29833268  428661.29835525      -.4287654933316  .44578670343604      -91897.31817068
                      -4.398979625899       -0.0005880      -.1220079369895     -164.1159614      26150.983403744

 IFUENB                  -214330.3525       428660.705       -.108720773769  .44578670343219      91897.459324836  .14115492505368
                      -371231.0601341     -120.0000000      -.4323257779823     -104.1159614      -26150.00414247        0.9792610

            SB1B      -214334.4587944  428661.29835525      .10872077376895  .44578670343219      -91897.31816991
                      -371229.3744855     -120.0005880      .43232577798232       75.8840386       26150.98340345

 IFUENC                  -214330.3525       428660.705      -.3200447195536  .44578670343163      91897.459325149  .14115492505609
                      371231.06013415      120.0000000      .31031784099905      135.8840386      -26150.00414092        0.9792610

            SB1C      -214326.8395382  428661.29835525      .32004471955357  .44578670343163      -91897.31817022
                      371233.77346513      119.9994120      -.3103178409991      -44.1159614      26150.983401905

 SB1A                 428661.29833268  428661.29835525      .42866129833E-3  .42866129836E-3      91.875254353805  91.875254353805
                      -4.398979625899       -0.0005880      -.4398979626E-8       -0.0005880      .3271664759E-19        0.0000000

            TERRA                 0.0              0.0      -.4286612983E-3  .42866129836E-3                  0.0
                                  0.0              0.0      .43989796259E-8      179.9994120                  0.0

 SB1B                 -214334.4587944  428661.29835525      -.2143344588E-3  .42866129836E-3      91.875254353805  91.875254353805
                      -371229.3744855     -120.0005880      -.3712293745E-3     -120.0005880      -.461436445E-15        0.0000000

            TERRA                 0.0              0.0      .21433445879E-3  .42866129836E-3                  0.0
                                  0.0              0.0      .37122937449E-3       59.9994120                  0.0

 SB1C                 -214326.8395382  428661.29835525      -.2143268395E-3  .42866129836E-3      91.875254353805  91.875254353805
                      371233.77346513      119.9994120      .37123377347E-3      119.9994120      .2352285033E-14        0.0000000

            TERRA                 0.0              0.0      .21432683954E-3  .42866129836E-3                  0.0
                                  0.0              0.0      -.3712337735E-3      -60.0005880                  0.0

 RSNSHA               160.87674056805  856.77394420686      .16087674057E-6  .85677394421E-6      .36703079574E-3  .36703079574E-3
                      -841.5344709612      -79.1773073       -.841534471E-6      -79.1773073       .330872245E-20        0.0000000

            TERRA                 0.0              0.0      -.1608767406E-6  .85677394421E-6                  0.0
                                  0.0              0.0      .84153447096E-6      100.8226927                  0.0

 RSNSHB               -809.2286002967  856.77394420686      -.8092286003E-6  .85677394421E-6      .36703079574E-3  .36703079574E-3
                      281.44389127063      160.8226927      .28144389127E-6      160.8226927      -.352709813E-20        0.0000000

            TERRA                 0.0              0.0       .8092286003E-6  .85677394421E-6                  0.0
                                  0.0              0.0      -.2814438913E-6      -19.1773073                  0.0

 RSNSHC               648.35185972868  856.77394420685      .64835185973E-6  .85677394421E-6      .36703079574E-3  .36703079574E-3
                      560.09057969058       40.8226927      .56009057969E-6       40.8226927      .2149346104E-19        0.0000000

            TERRA                 0.0              0.0      -.6483518597E-6  .85677394421E-6                  0.0
                                  0.0              0.0      -.5600905797E-6     -139.1773073                  0.0

 RSNNHA                161.7643981081  865.26972696141      .16176439811E-6  .86526972696E-6       .3743458502E-3   .3743458502E-3
                      -850.0141057068      -79.2250073      -.8500141057E-6      -79.2250073      -.224993127E-21        0.0000000

            TERRA                 0.0              0.0      -.1617643981E-6  .86526972696E-6                  0.0
                                  0.0              0.0      .85001410571E-6      100.7749927                  0.0

 RSNNHB               -817.0160081713  865.26972696141      -.8170160082E-6  .86526972696E-6       .3743458502E-3   .3743458502E-3
                       284.9149746639      160.7749927      .28491497466E-6      160.7749927      .3077111879E-20        0.0000000

            TERRA                 0.0              0.0      .81701600817E-6  .86526972696E-6                  0.0
                                  0.0              0.0      -.2849149747E-6      -19.2250073                  0.0

 RSNNHC               655.25161006318  865.26972696141      .65525161006E-6  .86526972696E-6       .3743458502E-3   .3743458502E-3
                      565.09913104294       40.7749927      .56509913104E-6       40.7749927      -.101908651E-20        0.0000000

            TERRA                 0.0              0.0      -.6552516101E-6  .86526972696E-6                  0.0
                                  0.0              0.0       -.565099131E-6     -139.2250073                  0.0

 X0001B               -809.2286004402  856.77394420713      -.2652725881E-4  .80749041845E-4      .81505096986E-6  .81505096986E-6
                      281.44389085895      160.8226927      -.7626737375E-4     -109.1786573      -.0345918375266       -0.0345918

            TERRA                 0.0              0.0      .26527258805E-4  .80749041845E-4                  0.0
                                  0.0              0.0      .76267373753E-4       70.8213427                  0.0

 X0002B               -214334.4587943  428661.29835482      .03498706828678  .04040037556248      .20402379319891  .20402379319891
                      -371229.3744851     -120.0005880      -.0202013711982      -30.0019380      -8659.038718914    -8659.0387189

            TERRA                 0.0              0.0      -.0349870682868  .04040037556248                  0.0
                                  0.0              0.0      .02020137119816      149.9980620                  0.0

 X0001A               160.87674099632  856.77394420713      .42826522417272  .43596836543509       .1175644713194   .9503420783E-7
                      -841.5344708796      -79.1773073      .08159236131178       10.7866259      -186.7631309992        0.0000000

            LN1A      160.87674056805  856.77394420686      -.4282652241727  .43596836543509      -.1175643762852
                      -841.5344709612      -79.1773073      -.0815923613118     -169.2133741      186.76313099918

 SB1A                 428661.29833268  428661.29835525      .42835017666221   .4453872603054      91808.303079303  .99184909175E-7
                      -4.398979625899       -0.0005880      .12200794152761       15.8986618      -26150.98346291              0.0

            X0002A    428661.29833225  428661.29835482      -.4283501766622   .4453872603054       -91808.3030792
                      -4.398979747907       -0.0005880      -.1220079415276     -164.1013382      26150.983462912

 X0001B               -809.2286004402  856.77394420713      -.1434715386495  .43596838094882      .11755499795274  .95034214592E-7
                      281.44389085895      160.8226927      -.4116847662772     -109.2133712       -186.763137651              0.0

            LN1B      -809.2286002967  856.77394420686      .14347153864946  .43596838094882      -.1175549029185
                      281.44389127063      160.8226927      .41168476627718       70.7866288      186.76313765103

 SB1B                 -214334.4587944  428661.29835525      -.1084990799427  .44537700057495      91805.490061227  .99180340385E-7
                      -371229.3744855     -120.0005880      -.4319590516388     -104.0998086       -26152.8319875        0.0000000

            X0002B    -214334.4587943  428661.29835482       .1084990799427  .44537700057495      -91805.49006113
                      -371229.3744851     -120.0005880      .43195905163884       75.9001914      26152.831987495

 X0001C               648.35185944388  856.77394420713       -.284793713945  .43596836787919      .11754036293932  .95034208898E-7
                      560.09058002067       40.8226927      .33009234812198      130.7866333      -186.7631320614              0.0

            LN1C      648.35185972868  856.77394420685      .28479371394496  .43596836787919      -.1175402679051
                      560.09057969058       40.8226927       -.330092348122      -49.2133667      186.76313206138

 SB1C                 -214326.8395382  428661.29835525       -.319821992889  .44537478778605      91806.248049969  .99179359836E-7
                      371233.77346513      119.9994120      .30995579436421      135.8975313      -26148.43972735              0.0

            X0002C    -214326.8395379  428661.29835482      .31982199288905  .44537478778605      -91806.24804987
                      371233.77346482      119.9994120      -.3099557943642      -44.1024687      26148.439727348

 XX0005               428661.29833225  428661.29835482                  0.0              0.0                  0.0              0.0
                      -4.398979747907       -0.0005880                  0.0              0.0                  0.0              0.0

            X0002A    428661.29833225  428661.29835482                  0.0              0.0                  0.0
                      -4.398979747907       -0.0005880                  0.0              0.0                  0.0

 XX0003               -214334.4587943  428661.29835482                  0.0              0.0                  0.0              0.0
                      -371229.3744851     -120.0005880                  0.0              0.0                  0.0              0.0

            X0002B    -214334.4587943  428661.29835482                  0.0              0.0                  0.0
                      -371229.3744851     -120.0005880                  0.0              0.0                  0.0

 XX0004               -214326.8395379  428661.29835482                  0.0              0.0                  0.0              0.0
                      371233.77346482      119.9994120                  0.0              0.0                  0.0              0.0

            X0002C    -214326.8395379  428661.29835482                  0.0              0.0                  0.0
                      371233.77346482      119.9994120                  0.0              0.0                  0.0

 X0001A               160.87674099632  856.77394420713      .79313112552E-4  .80749041845E-4      .81505096986E-6  .81505096986E-6
                      -841.5344708796      -79.1773073      .15160406858E-4       10.8213427      -.0345918375266       -0.0345918

            TERRA                 0.0              0.0      -.7931311255E-4  .80749041845E-4                  0.0
                                  0.0              0.0      -.1516040686E-4     -169.1786573                  0.0

 X0001A               160.87674099632  856.77394420713      -.4285004215913  .42850123932109      -34.11563648428  91806.656049857
                      -841.5344708796      -79.1773073      -.8371354911E-3     -179.8880648      180.36627559254        0.0000000

            X0002A    428661.29833225  428661.29835482      .42850042159125  .42850123932109      91840.771686341
                      -4.398979747907       -0.0005880      .83713549113E-3        0.1119352      -180.3662755925

 X0001B               -809.2286004402  856.77394420713       .2135252301939  .42850123932109      -34.11563648428  91806.656049857
                      281.44389085895      160.8226927      .37151081837593       60.1119352      180.36627559254        0.0000000

            X0002B    -214334.4587943  428661.29835482      -.2135252301939  .42850123932109      91840.771686341
                      -371229.3744851     -120.0005880      -.3715108183759     -119.8880648      -180.3662755925

 X0001C               648.35185944388  856.77394420713      .21497519139736  .42850123932109      -34.11563648428  91806.656049857
                      560.09058002067       40.8226927      -.3706736828848      -59.8880648      180.36627559254        0.0000000

            X0002C    -214326.8395379  428661.29835482      -.2149751913974  .42850123932109      91840.771686341
                      371233.77346482      119.9994120       .3706736828848      120.1119352      -180.3662755925

 X0002C               -214326.8395379  428661.29835482      -.0349884347923  .04040037556248      .20402379319883  .20402379319883
                      371233.77346482      119.9994120      -.0201990043412     -150.0019380      -8659.038718914    -8659.0387189

            TERRA                 0.0              0.0      .03498843479227  .04040037556248                  0.0
                                  0.0              0.0      .02019900434121       29.9980620                  0.0

 X0002A               428661.29833225  428661.29835482      .13665054963E-5  .04040037556248      .20402379319867  .20402379319867
                      -4.398979747907       -0.0005880      .04040037553937       89.9980620      -8659.038718914    -8659.0387189

            TERRA                 0.0              0.0      -.1366505496E-5  .04040037556248                  0.0
                                  0.0              0.0      -.0404003755394      -90.0019380                  0.0

 X0001C               648.35185944388  856.77394420713      -.5278585375E-4  .80749041845E-4      .81505096986E-6  .81505096986E-6
                      560.09058002067       40.8226927      .61106966894E-4      130.8213427      -.0345918375266       -0.0345918

            TERRA                 0.0              0.0      .52785853747E-4  .80749041845E-4                  0.0
                                  0.0              0.0      -.6110696689E-4      -49.1786573                  0.0

 X0001A               160.87674099632  856.77394420713      .15589321411E-3   .0807705807079      33.998090444012  .40774291924317
                      -841.5344708796      -79.1773073       -.080770430265      -89.8894148      6.4314470382275   -17305.1469622

            X0002A    428661.29833225  428661.29835482      -.1558932141E-3   .0807705807079      -33.59034752477
                      -4.398979747907       -0.0005880      .08077043026502       90.1105852      -17311.57840924

 X0001B               -809.2286004402  856.77394420713      -.0700271910912   .0807705807079      33.998090444012  .40774291924292
                      281.44389085895      160.8226927      .04025020764881      150.1105852      6.4314470382277   -17305.1469622

            X0002B    -214334.4587943  428661.29835482      .07002719109116   .0807705807079      -33.59034752477
                      -371229.3744851     -120.0005880      -.0402502076488      -29.8894148      -17311.57840924

 X0001C               648.35185944388  856.77394420713      .06987129787705   .0807705807079      33.998090444011  .40774291924314
                      560.09058002067       40.8226927      .04052022261621       30.1105852      6.4314470382277   -17305.1469622

            X0002C    -214326.8395379  428661.29835482      -.0698712978771   .0807705807079      -33.59034752477
                      371233.77346482      119.9994120      -.0405202226162     -149.8894148      -17311.57840924

 LN1A                 160.87674056805  856.77394420686      .42826505251325  .43596836438141      .11717382260537  .11679947675515
                      -841.5344709612      -79.1773073      .08159325668965       10.7867457      -186.7631307932     -186.7631308

            VFF2A      161.7643981081  865.26972696141      -.1617643971E-6  .86526972701E-6      -.3743458502E-3
                      -850.0141057068      -79.2250073      .85001410594E-6      100.7749927      -.432766768E-12

 LN1B                 -809.2286002967  856.77394420686      -.1434706931859  .43596836438141      .11717382260642   .1167994767558
                      281.44389127063      160.8226927      -.4116850433744     -109.2132543      -186.7631307932     -186.7631308

            VFF2B     -817.0160081713  865.26972696141      .81701600878E-6  .86526972792E-6      -.3743458506E-3
                       284.9149746639      160.7749927      -.2849149758E-6      -19.2250073      -.388004499E-12

 LN1C                 648.35185972868  856.77394420685      -.2847943593274  .43596836438141      .11717382260572  .11679947675563
                      560.09057969058       40.8226927      .33009178668473      130.7867457      -186.7631307932     -186.7631308

            VFF2C     655.25161006318  865.26972696141      -.6552516087E-6  .86526972673E-6      -.3743458501E-3
                      565.09913104294       40.7749927      -.5650991323E-6     -139.2250071      .8161973966E-12
     Total network loss  P-loss  by summing injections =   2.757053046965E+05

Output for steady-state phasor switch currents.
      Node-K    Node-M            I-real            I-imag            I-magn          Degrees        Power            Reactive
      LN1A      COMPA         1.76537367E-07   -9.10919595E-07    9.27868498E-07     -79.0320    3.97485498E-04   -1.00825221E-06
      LN1B      COMPB        -8.65398500E-07    3.40746114E-07    9.30065846E-07     158.5082    3.98103065E-04    1.60901900E-05
      LN1C      COMPC         6.03109998E-07    5.67260527E-07    8.27965081E-07      43.2455    3.54372383E-04   -1.49940945E-05
      VFF2A     RSNNHA        1.61764398E-07   -8.50014106E-07    8.65269727E-07     -79.2250    3.74345850E-04   -7.62012699E-14
      VFF2B     RSNNHB       -8.17016008E-07    2.84914978E-07    8.65269728E-07     160.7750    3.74345851E-04    1.51486991E-12
      VFF2C     RSNNHC        6.55251609E-07    5.65099131E-07    8.65269726E-07      40.7750    3.74345850E-04   -3.48703024E-13
      VFF2A     SE2A              Open              Open              Open             Open          Open              Open
      VFF2B     SE2B              Open              Open              Open             Open          Open              Open
      VFF2C     SE2C              Open              Open              Open             Open          Open              Open
      X0001B    XX0003            Open              Open              Open             Open          Open              Open
      X0001C    XX0004            Open              Open              Open             Open          Open              Open
      XX0005    X0002A            Open              Open              Open             Open          Open              Open
      XX0003    X0002B            Open              Open              Open             Open          Open              Open
      XX0004    X0002C            Open              Open              Open             Open          Open              Open
      X0001A    XX0005            Open              Open              Open             Open          Open              Open
      VFUENA    IFUENA        4.28765493E-01    1.22007937E-01    4.45786703E-01      15.8840    9.18974593E+04   -2.61500041E+04
      VFUENB    IFUENB       -1.08720774E-01   -4.32325778E-01    4.45786703E-01    -104.1160    9.18974593E+04   -2.61500041E+04
      VFUENC    IFUENC       -3.20044720E-01    3.10317841E-01    4.45786703E-01     135.8840    9.18974593E+04   -2.61500041E+04
      COMPA     RSNSHA        1.76537367E-07   -9.10919595E-07    9.27868498E-07     -79.0320    3.97485498E-04   -1.00825221E-06
      COMPB     RSNSHB       -8.65398500E-07    3.40746114E-07    9.30065846E-07     158.5082    3.98103065E-04    1.60901900E-05
      COMPC     RSNSHC        6.03109998E-07    5.67260527E-07    8.27965081E-07      43.2455    3.54372383E-04   -1.49940945E-05

Solution at nodes with known voltage.   Nodes that are shorted together by switches are shown as a group of names, with the printed
result applying to the composite group.   The entry "MVA" is  SQRT( P**2 + Q**2 )  in units of power,  while  "P.F."  is the
associated power factor.
              Node                Source  node  voltage             Injected  source  current              Injected  source  power
              name         Rectangular            Polar          Rectangular            Polar            P  and  Q    MVA and P.F.

               VFUENA
              IFUENA       428660.705       428660.705      .42876549333216  .44578670343649      91897.459325717  95545.621287356
                                  0.0              0.0       .1220079369894       15.8840386      -26150.00414274        0.9618176

               VFUENB
              IFUENB     -214330.3525       428660.705      -.1087207737686  .44578670343188      91897.459324755  95545.621286368
                      -371231.0601341     -120.0000000      -.4323257779821     -104.1159614      -26150.00414251        0.9618176

               VFUENC
              IFUENC     -214330.3525       428660.705       -.320044719553  .44578670343191      91897.459325272  95545.621286374
                      371231.06013415      120.0000000      .31031784100004      135.8840386      -26150.00414071        0.9618176

  +++  Node  "COMPC "  has no connected linear branches.  Add (to ground) the conductance  G = 1.00000000E-18  mhos.
  +++  Node  "COMPB "  has no connected linear branches.  Add (to ground) the conductance  G = 1.00000000E-18  mhos.
  +++  Node  "COMPA "  has no connected linear branches.  Add (to ground) the conductance  G = 1.00000000E-18  mhos.
Card of names for time-step loop output.          |  LN1A  LN1B  LN1C  COMPA COMPB COMPC SB1A  SB1B  SB1C  SE2A  SE2B  SE2C  VFF2A
Card of names for time-step loop output.          |  VFF2B VFF2C IFUENAIFUENBIFUENC
Card of names for time-step loop output.          |-5VFF2A VFF2B VFF2B VFF2C VFF2C VFF2A LN1A  LN1B  LN1B  LN1C  LN1C  LN1A
Card of names for time-step loop output.          |-5SB1A  SB1B  SB1B  SB1C  SB1C  SB1A
Blank card ending requests for output variables.  |BLANK OUTPUT

Column headings for the  55   EMTP output variables follow.  These are divided among the 5 possible classes as follows ....
  First  27     output variables are electric-network voltage differences (upper voltage minus lower voltage);
  Next   6     output variables are branch currents (flowing from the upper node to the lower node);
  Next   22     output variables belong to MODELS (with "MODELS" an internally-added upper name of pair).
   Step      Time      LN1A       LN1B       LN1C       COMPA      COMPB      COMPC      SB1A       SB1B       SB1C       SE2A
 

                       SE2B       SE2C       VFF2A      VFF2B      VFF2C      IFUENA     IFUENB     IFUENC     VFF2A      VFF2B
                                                                                                               VFF2B      VFF2C

                       VFF2C      LN1A       LN1B       LN1C       SB1A       SB1B       SB1C       VFUENA     VFUENB     VFUENC
                       VFF2A      LN1B       LN1C       LN1A       SB1B       SB1C       SB1A       IFUENA     IFUENB     IFUENC

                       COMPA      COMPB      COMPC      MODELS     MODELS     MODELS     MODELS     MODELS     MODELS     MODELS
                       RSNSHA     RSNSHB     RSNSHC     ANVOL      LONG       R0F        R1F        X0F        X1F        RDIVX

                       MODELS     MODELS     MODELS     MODELS     MODELS     MODELS     MODELS     MODELS     MODELS     MODELS
                       RINSER     CLOSE1     RPPOS      RPCERO     LPPOS      LPCERO     CPPOS      CPCERO     XP         CR

                       MODELS     MODELS     MODELS     MODELS     MODELS
                       SIMET      ENC1       ENC2       ENC1AS     ENC2AS
 ***      Phasor I(0) =  1.7653737E-07                     Switch  "LN1A  "  to  "COMPA "  closed in the steady-state.
 ***      Phasor I(0) = -8.6539850E-07                     Switch  "LN1B  "  to  "COMPB "  closed in the steady-state.
 ***      Phasor I(0) =  6.0311000E-07                     Switch  "LN1C  "  to  "COMPC "  closed in the steady-state.
 ***      Phasor I(0) =  1.6176440E-07                     Switch  "VFF2A "  to  "RSNNHA"  closed in the steady-state.
 ***      Phasor I(0) = -8.1701601E-07                     Switch  "VFF2B "  to  "RSNNHB"  closed in the steady-state.
 ***      Phasor I(0) =  6.5525161E-07                     Switch  "VFF2C "  to  "RSNNHC"  closed in the steady-state.
 ***      Phasor I(0) =  4.2876549E-01                     Switch  "VFUENA"  to  "IFUENA"  closed in the steady-state.
 ***      Phasor I(0) = -1.0872077E-01                     Switch  "VFUENB"  to  "IFUENB"  closed in the steady-state.
 ***      Phasor I(0) = -3.2004472E-01                     Switch  "VFUENC"  to  "IFUENC"  closed in the steady-state.
 ***      Phasor I(0) =  1.7653737E-07                     Switch  "COMPA "  to  "RSNSHA"  closed in the steady-state.
 ***      Phasor I(0) = -8.6539850E-07                     Switch  "COMPB "  to  "RSNSHB"  closed in the steady-state.
 ***      Phasor I(0) =  6.0311000E-07                     Switch  "COMPC "  to  "RSNSHC"  closed in the steady-state.
      0       0.0  160.876741  -809.2286  648.35186 160.876741  -809.2286  648.35186 428661.298 -214334.46 -214326.84        0.0
                          0.0        0.0 161.764398 -817.01601  655.25161 428660.705 -214330.35 -214330.35 978.780406 -1472.2676
                   493.487212 970.105341 -1457.5805 487.475119 642995.757 -7.6192562 -642988.14 .428765493 -.10872077 -.32004472
                   .176537E-6  -.8654E-6  .60311E-6        0.0   109.9067   1.701778   1.420578   11.80625   9.855399    .144142
                         360.    .046293    .029775    .248179    .354035   1.340466    .014643    .006506   3042.903   60.85806
                          0.0        0.0        0.0        0.0        0.0
    500     .5E-3  290.540769 -843.29301 552.752242 290.540769 -843.29301 552.752242  423384.46 -153622.58 -269761.88        0.0
                          0.0        0.0 292.747756 -851.52942 558.781661  423383.18 -153618.26 -269764.92 1144.27717 -1410.3111
                   266.033905 1133.83378 -1396.0453 262.211472  577007.04   116139.3 -693146.34 .404411861  -.0397555 -.36465636
                   .320267E-6 -.83008E-6 .623462E-6        0.0   109.9067   1.701778   1.420578   11.80625   9.855399    .144142
                         360.    .046293    .029775    .248179    .354035   1.340466    .014643    .006506   3042.903   60.85806
                          0.0        0.0        0.0        0.0        0.0
   1000     .1E-2  413.050229 -856.59252 443.542293 413.050229 -856.59252 443.542293   407682.5 -89128.008 -318554.49        0.0
                          0.0        0.0 416.516455 -865.07223 448.555779 407680.557 -89123.572 -318556.98 1281.58869  -1313.628
                    32.039324 1269.64275 -1300.1348 30.4920641 496810.508 229426.484 -726236.99 .370091845 .030192904 -.40028475
                   .457491E-6 -.85171E-6 .451051E-6        0.0   109.9067   1.701778   1.420578   11.80625   9.855399    .144142
                         360.    .046293    .029775    .248179    .354035   1.340466    .014643    .006506   3042.903   60.85806
                          0.0        0.0        0.0        0.0        0.0
   1500     .0015  525.390944 -848.80083 323.409882 525.390944 -848.80083 323.409882 381942.022 -22438.798 -359503.22        0.0
                          0.0        0.0 530.031348 -857.31521 327.283863 381939.485 -22434.368 -359505.12 1387.34656 -1184.5991
                   -202.74748 1374.19177 -1172.2107 -201.98106  404380.82 337064.427 -741445.25 .326656528 .099399056 -.42605558
                   .600046E-6 -.93277E-6 .332715E-6        0.0   109.9067   1.701778   1.420578   11.80625   9.855399    .144142
                         360.    .046293    .029775    .248179    .354035   1.340466    .014643    .006506   3042.903   60.85806
                          0.0        0.0        0.0        0.0        0.0
   2000      .002  624.793553 -820.10823 195.314678 624.793553 -820.10823 195.314678 346796.874 44802.9253  -391599.8        0.0
                          0.0        0.0 630.495749 -828.44856 197.952808 346793.795 44807.2448 -391601.04 1458.94431 -1026.4014
                   -432.54294 1444.90178 -1015.4229 -429.47888 301993.949 436402.724 -738396.67 .275173717 .166159738 -.44133345
                   .612417E-6 -.87059E-6 .201326E-6        0.0   109.9067   1.701778   1.420578   11.80625   9.855399    .144142
                         360.    .046293    .029775    .248179    .354035   1.340466    .014643    .006506   3042.903   60.85806
                          0.0        0.0        0.0        0.0        0.0
   2500     .0025  708.811645 -771.22183 62.4101829 708.811645 -771.22183 62.4101829 303112.416 110941.461 -414053.88        0.0
                          0.0        0.0 715.436196 -779.18323 63.7470308 303108.891 110945.554 -414054.45 1494.61942 -842.93026
                   -651.68917 1480.03347 -833.63201 -646.40146 192170.955 524995.339 -717166.29 .216920243 .228826498 -.44574674
                   .773669E-6 -.80524E-6 .670661E-7        0.0   109.9067   1.701778   1.420578   11.80625   9.855399    .144142
                         360.    .046293    .029775    .248179    .354035   1.340466    .014643    .006506   3042.903   60.85806
                          0.0        0.0        0.0        0.0        0.0
   3000      .003  775.375739 -703.34504 -72.030697 775.375739 -703.34504 -72.030697 251964.343 174348.241 -426312.58        0.0
                          0.0        0.0 782.758615   -710.731  -72.02761 251960.441 174352.016 -426312.46 1493.48962 -638.70339
                   -854.78623 1478.72078 -631.31435 -847.40644 77616.1015 600660.826 -678276.93 .153323309 .285859877 -.43918319
                   .793543E-6 -.77342E-6 -.76958E-7        0.0   109.9067   1.701778   1.420578   11.80625   9.855399    .144142
                         360.    .046293    .029775    .248179    .354035   1.340466    .014643    .006506   3042.903   60.85806
                          0.0        0.0        0.0        0.0        0.0
   3500     .0035  822.849291 -618.15045 -204.69884 822.849291 -618.15045 -204.69884 194612.075 233461.987 -428074.06        0.0
                          0.0        0.0  830.80792 -624.77873 -206.02919 194607.888 233465.353 -428073.24 1455.58665 -418.74955
                   -1036.8371 1440.99974  -413.4516 -1027.5481 -38849.912  661536.05 -622686.14  .08595236 .335853781 -.42180614
                   .899886E-6 -.68014E-6 -.21979E-6        0.0   109.9067   1.701778   1.420578   11.80625   9.855399    .144142
                         360.    .046293    .029775    .248179    .354035   1.340466    .014643    .006506   3042.903   60.85806
                          0.0        0.0        0.0        0.0        0.0
   4000      .004  850.060573 -517.73445 -332.32612 850.060573 -517.73445 -332.32612 132467.817 286827.122 -419294.94        0.0
                          0.0        0.0  858.39915 -523.44192 -334.95723 132463.443 286829.997 -419293.44 1381.84107 -188.48469
                   -1193.3564 1367.79503 -185.40833 -1182.3867  -154359.3  706122.06 -551762.76 .016463284 .377578698 -.39404198
                   .845123E-6 -.56359E-6 -.33839E-6        0.0   109.9067   1.701778   1.420578   11.80625   9.855399    .144142
                         360.    .046293    .029775    .248179    .354035   1.340466    .014643    .006506   3042.903   60.85806
                          0.0        0.0        0.0        0.0        0.0
   4500     .0045  856.338621 -404.56915 -451.76947 856.338621 -404.56915 -451.76947 67061.7452 333129.629 -400191.37        0.0
                          0.0        0.0 864.854471 -409.21659 -455.63788 67057.3081 333131.936 -400189.24 1274.07106 46.4212932
                   -1320.4924 1260.90777 47.2003252 -1308.1081 -266067.88 733321.003 -467253.12 -.05342917 .410005369  -.3565762
                   .953169E-6 -.40381E-6  -.4925E-6        0.0   109.9067   1.701778   1.420578   11.80625   9.855399    .144142
                         360.    .046293    .029775    .248179    .354035   1.340466    .014643    .006506   3042.903   60.85806
                          0.0        0.0        0.0        0.0        0.0
   5000      .005  841.534058 -281.44365 -560.09041 841.534058 -281.44365 -560.09041  4.3990321 371229.374 -371233.77        0.0
                          0.0        0.0 850.013631 -284.91471 -565.09892 -.45661E-7  371231.06 -371231.06 1134.92834  280.18421
                   -1415.1126 1122.97771 278.646755 -1401.6245 -371224.98 742463.148 -371238.17 -.12200875 .432337715 -.31032896
                   .881256E-6 -.32309E-6 -.61502E-6        0.0   109.9067   1.701778   1.420578   11.80625   9.855399    .144142
                         360.    .046293    .029775    .248179    .354035   1.340466    .014643    .006506   3042.903   60.85806
                          0.0        0.0        0.0        0.0        0.0
   5500     .0055  806.007386 -151.38771 -654.61967 806.007386 -151.38771 -654.61967 -67053.056 400188.221 -333135.17        0.0
                          0.0        0.0 814.243912 -153.59791   -660.646 -67057.308 400189.244 -333131.94 967.841827 507.048083
                   -1474.8899 957.395098 503.231963 -1460.6271 -467241.28 733323.386 -266082.11 -.18758129  .44402308 -.25644179
                   .792261E-6 -.16613E-6 -.71136E-6        0.0   109.9067   1.701778   1.420578   11.80625   9.855399    .144142
                         360.    .046293    .029775    .248179    .354035   1.340466    .014643    .006506   3042.903   60.85806
                          0.0        0.0        0.0        0.0        0.0
   6000      .006  750.632979 -17.603521 -733.02946 750.632979 -17.603521 -733.02946 -132459.44 419293.105 -286833.66        0.0
                          0.0        0.0 758.423758 -18.498516 -739.92524 -132463.44  419293.44   -286830. 776.922273 721.426726
                    -1498.349   768.2365 715.425938 -1483.6624 -551752.55 706126.769 -154374.22 -.24853612 .444775709 -.19623959
                   .830054E-6 -.19404E-7 -.72183E-6        0.0   109.9067   1.701778   1.420578   11.80625   9.855399    .144142
                         360.    .046293    .029775    .248179    .354035   1.340466    .014643    .006506   3042.903   60.85806
                          0.0        0.0        0.0        0.0        0.0
   6500     .0065  676.775944 116.613899 -793.38984 676.775944 116.613899 -793.38984 -194604.24 428073.604 -233469.36        0.0
                          0.0        0.0 683.928515 117.056479 -800.98499 -194607.89  428073.24 -233465.35 566.872036 918.041473
                   -1484.9135 560.162044 910.003742 -1470.1658 -622677.84 661542.968 -38865.124 -.30337053 .434576162 -.13120563
                   .709719E-6  .12377E-6 -.86194E-6        0.0   109.9067   1.701778   1.420578   11.80625   9.855399    .144142
                         360.    .046293    .029775    .248179    .354035   1.340466    .014643    .006506   3042.903   60.85806
                          0.0        0.0        0.0        0.0        0.0
   7000      .007  586.254614 247.959817 -834.21443 586.254614 247.959817 -834.21443 -251957.23 426313.506 -174356.28        0.0
                          0.0        0.0  592.59273 249.729121 -842.32185 -251960.44 426312.457 -174352.02 342.863609 1092.05097
                   -1434.9146 338.294797 1082.17425  -1420.469 -678270.73 600669.783 77600.9505 -.35073678 .413676821 -.06294005
                    .61674E-6 .253641E-6  -.8705E-6        0.0   109.9067   1.701778   1.420578   11.80625   9.855399    .144142
                         360.    .046293    .029775    .248179    .354035   1.340466    .014643    .006506   3042.903   60.85806
                          0.0        0.0        0.0        0.0        0.0
   7500     .0075  481.298109 373.199954 -854.49806 481.298109 373.199954 -854.49806  -303106.2 414056.157 -110949.96        0.0
                          0.0        0.0 486.666189 376.252189 -862.91838 -303108.89 414054.446 -110945.55    110.414 1239.17057
                   -1349.5846 108.098155 1227.69802 -1335.7962 -717162.36 525006.114 192156.243 -.38946477  .38259041  .00687436
                   .477951E-6 .414643E-6 -.94943E-6        0.0   109.9067   1.701778   1.420578   11.80625   9.855399    .144142
                         360.    .046293    .029775    .248179    .354035   1.340466    .014643    .006506   3042.903   60.85806
                          0.0        0.0        0.0        0.0        0.0
   8000      .008  364.489244 489.251279 -853.74052 364.489244 489.251279 -853.74052 -346791.69 391603.371 -44811.682        0.0
                          0.0        0.0 368.755342 493.511156  -862.2665  -346793.8  391601.04 -44807.245 -124.75581 1355.77765
                   -1231.0218 -124.76203  1342.9918 -1218.2298 -738395.06 436415.053 301980.008 -.41860381 .342083833 .076519976
                   .362981E-6 .496603E-6 -.85967E-6        0.0   109.9067   1.701778   1.420578   11.80625   9.855399    .144142
                         360.    .046293    .029775    .248179    .354035   1.340466    .014643    .006506   3042.903   60.85806
                          0.0        0.0        0.0        0.0        0.0
   8500     .0085  238.706444 593.255114 -831.96156 238.706444 593.255114 -831.96156 -381938.02 359508.012 22430.0073        0.0
                          0.0        0.0  241.76742 598.616796 -840.38422 -381939.48 359505.117 22434.3679 -356.84938 1439.00101
                   -1082.1516 -354.54867 1425.21667  -1070.668 -741446.03 337078.005 404368.026 -.43743494  .29315377  .14428117
                   .252892E-6 .642818E-6 -.83889E-6        0.0   109.9067   1.701778   1.420578   11.80625   9.855399    .144142
                         360.    .046293    .029775    .248179    .354035   1.340466    .014643    .006506   3042.903   60.85806
                          0.0        0.0        0.0        0.0        0.0
   9000      .009  107.046678 682.650642 -789.69732 107.046678 682.650642 -789.69732 -407679.76 318560.368 89119.3906        0.0
                          0.0        0.0  108.82166 688.984865 -797.80653 -407680.56 318556.985  89123.572  -580.1632 1486.79139
                   -906.62819 -575.60396 1472.34796   -896.744 -726240.13 229440.977 496799.149 -.44549508 .237005347 .208489737
                   .106146E-6 .668917E-6  -.8177E-6        0.0   109.9067   1.701778   1.420578   11.80625   9.855399    .144142
                         360.    .046293    .029775    .248179    .354035   1.340466    .014643    .006506   3042.903   60.85806
                          0.0        0.0        0.0        0.0        0.0
   9500     .0095  -27.250951 755.238062 -727.98711 -27.250951 755.238062 -727.98711 -423383.08 269768.715 153614.364        0.0
                          0.0        0.0 -26.801984 762.386997 -735.58501 -423383.18 269764.922 153618.258 -789.18898 1497.97201
                   -708.78303 -782.48901 1483.22517 -700.73616 -693151.79 116154.351 576997.442 -.44258574 .175021101 .267564636
                    -.2748E-7 .803852E-6 -.78703E-6        0.0   109.9067   1.701778   1.420578   11.80625   9.855399    .144142
                         360.    .046293    .029775    .248179    .354035   1.340466    .014643    .006506   3042.903   60.85806
                          0.0        0.0        0.0        0.0        0.0
  10000       .01  -160.87695 809.228697 -648.35175 -160.87695 809.228697 -648.35175  -428661.3 214334.461 214326.841        0.0
                          0.0        0.0 -161.76474 817.016177 -655.25143 -428660.71 214330.353 214330.352 -978.78092 1472.26761
                   -493.48669 -970.10565 1457.58044 -487.47479 -642995.76 7.61948588 642988.144 -.42877898 .108727514 .320051463
                   -.15645E-6  .81555E-6  -.7159E-6        0.0   109.9067   1.701778   1.420578   11.80625   9.855399    .144142
                         360.    .046293    .029775    .248179    .354035   1.340466    .014643    .006506   3042.903   60.85806
                          0.0        0.0        0.0        0.0        0.0
  10500     .0105  -290.54105 843.293157  -552.7521 -290.54105 843.293157  -552.7521 -423384.46 153622.578 269761.878        0.0
                          0.0        0.0 -292.74459 851.527834 -558.78324 -423383.18 153618.258 269764.922 -1144.2724 1410.31108
                   -266.03865 -1133.8342 1396.04526 -262.21105 -577007.03  -116139.3 693146.333 -.40441361 .039756373 .364657237
                   -.27767E-6 .836274E-6 -.61543E-6        0.0   109.9067   1.701778   1.420578   11.80625   9.855399    .144142
                         360.    .046293    .029775    .248179    .354035   1.340466    .014643    .006506   3042.903   60.85806
                          0.0        0.0        0.0        0.0        0.0
  11000      .011   -413.0508 856.592796   -443.542  -413.0508 856.592796   -443.542 -407682.48 89127.9976 318554.481        0.0
                          0.0        0.0 -416.51592  865.07197 -448.55605 -407680.56  89123.572 318556.985 -1281.5879 1313.62802
                   -32.040125 -1269.6436 1300.13479 -30.491201 -496810.48 -229426.48 726236.961 -.37009038 -.03019363 .400284013
                   -.45358E-6 .874323E-6 -.47762E-6        0.0   109.9067   1.701778   1.420578   11.80625   9.855399    .144142
                         360.    .046293    .029775    .248179    .354035   1.340466    .014643    .006506   3042.903   60.85806
                          0.0        0.0        0.0        0.0        0.0
  11500     .0115  -525.39092 848.800814  -323.4099 -525.39092 848.800814  -323.4099 -381942.01 22438.7926 359503.219        0.0
                          0.0        0.0 -530.03186  857.31546  -327.2836 -381939.48 22434.3679 359505.117 -1387.3473 1184.59906
                   202.748253 -1374.1917 1172.21071  201.98102  -404380.8 -337064.43 741445.231 -.32665404  -.0994003 .426054337
                   -.55923E-6 .853429E-6 -.35096E-6        0.0   109.9067   1.701778   1.420578   11.80625   9.855399    .144142
                         360.    .046293    .029775    .248179    .354035   1.340466    .014643    .006506   3042.903   60.85806
                          0.0        0.0        0.0        0.0        0.0
  12000      .012  -624.79372 820.108306 -195.31459 -624.79372 820.108306 -195.31459 -346796.86 -44802.931 391599.793        0.0
                          0.0        0.0 -630.49612  828.44874 -197.95262  -346793.8 -44807.245  391601.04 -1458.9449 1026.40136
                   432.543494  -1444.902 1015.42289 429.479129 -301993.93 -436402.72 738396.656 -.27517527 -.16615896  .44133423
                   -.61884E-6 .815237E-6 -.19638E-6        0.0   109.9067   1.701778   1.420578   11.80625   9.855399    .144142
                         360.    .046293    .029775    .248179    .354035   1.340466    .014643    .006506   3042.903   60.85806
                          0.0        0.0        0.0        0.0        0.0
  12500     .0125  -708.81188 771.221943 -62.410067 -708.81188 771.221943 -62.410067 -303112.42 -110941.46  414053.88        0.0
                          0.0        0.0 -715.43539 779.182818 -63.747424 -303108.89 -110945.55 414054.446 -1494.6182 842.930241
                   651.687971 -1480.0338  833.63201 646.401808 -192170.96 -524995.34 717166.302 -.21691974 -.22882675 .445746491
                   -.76433E-6 .801267E-6 -.65422E-7        0.0   109.9067   1.701778   1.420578   11.80625   9.855399    .144142
                         360.    .046293    .029775    .248179    .354035   1.340466    .014643    .006506   3042.903   60.85806
                          0.0        0.0        0.0        0.0        0.0
  13000      .013  -775.37671 703.345524 72.0311846 -775.37671 703.345524 72.0311846 -251964.35 -174348.24 426312.587        0.0
                          0.0        0.0  -782.7599 710.731647 72.0282564 -251960.44 -174352.02 426312.457 -1493.4916 638.703391
                    854.78816 -1478.7222 631.314339 847.407893 -77616.109 -600660.83 678276.935 -.15332339 -.28585984 .439183225
                   -.78883E-6 .714955E-6 .739456E-7        0.0   109.9067   1.701778   1.420578   11.80625   9.855399    .144142
                         360.    .046293    .029775    .248179    .354035   1.340466    .014643    .006506   3042.903   60.85806
                          0.0        0.0        0.0        0.0        0.0
  13500     .0135  -822.84868 618.150141  204.69854 -822.84868 618.150141  204.69854 -194612.08 -233461.99 428074.064        0.0
                          0.0        0.0 -830.80778 624.778661 206.029114 -194607.89 -233465.35  428073.24 -1455.5864 418.749547
                   1036.83689 -1440.9988 413.451602 1027.54722 38849.9066 -661536.05 622686.143 -.08595198 -.33585397 .421805951
                   -.86106E-6 .604414E-6 .228203E-6        0.0   109.9067   1.701778   1.420578   11.80625   9.855399    .144142
                         360.    .046293    .029775    .248179    .354035   1.340466    .014643    .006506   3042.903   60.85806
                          0.0        0.0        0.0        0.0        0.0
  14000      .014  -850.06051 517.734418 332.326094 -850.06051 517.734418 332.326094 -132467.81 -286827.13 419294.935        0.0
                          0.0        0.0 -858.39924 523.441962 334.957278 -132463.44   -286830.  419293.44 -1381.8412 188.484683
                   1193.35652 -1367.7949 185.408325 1182.38661 154359.316 -706122.06 551762.744 -.01646379 -.37757844 .394042232
                    -.9379E-6 .495012E-6 .329223E-6        0.0   109.9067   1.701778   1.420578   11.80625   9.855399    .144142
                         360.    .046293    .029775    .248179    .354035   1.340466    .014643    .006506   3042.903   60.85806
                          0.0        0.0        0.0        0.0        0.0
  14500     .0145  -856.34026 404.569962 451.770298 -856.34026 404.569962 451.770298 -67061.745 -333129.63 400191.374        0.0
                          0.0        0.0 -864.85443 409.216573 455.637858 -67057.308 -333131.94 400189.244  -1274.071 -46.421286
                   1320.49229 -1260.9102 -47.200336 1308.11056 266067.883   -733321. 467253.119  .05343013 -.41000585  .35657572
                   -.91181E-6 .439498E-6 .472268E-6        0.0   109.9067   1.701778   1.420578   11.80625   9.855399    .144142
                         360.    .046293    .029775    .248179    .354035   1.340466    .014643    .006506   3042.903   60.85806
                          0.0        0.0        0.0        0.0        0.0
  % % % % % %   Suspended simulation;  plot data space exhausted;  SPY SPACE is required.   LIMBUF =  840000.
  % % % % % %   Suspended simulation;  plot data space exhausted;  SPY SPACE is required.   LIMBUF =  840000.
  +++  Time-sharing disabled.   Send  user-keyed interrupt to silence alarm.
   Current values.  INDBUF  INDBEG  LIMBUF  MFLUSH  NUMDCD  KCARD1  KCARD2
                    839994      50  840000    1000     230       1     231
Plot timespan now in memory (in sec) = 0.00000000E+00   1.49990000E-02
   ++++  Begin plot-data copy from memory to disk.   MFLUSH, INDBUF, N4, Tbeg,  Tend = 1001  839994       1  -1.00000E+00
1.00000E+19
  15000      .015   -841.5346 281.443928 560.090677  -841.5346 281.443928 560.090677 -4.3993936 -371229.37 371233.774        0.0
                          0.0        0.0 -850.01444 284.915107 565.099329 -.61533E-6 -371231.06  371231.06 -1134.9295 -280.18422
                   1415.11377 -1122.9785 -278.64675 1401.62528 371224.975 -742463.15 371238.173  .12200794 -.43233731  .31032937
                    -.9025E-6 .276952E-6 .568689E-6        0.0   109.9067   1.701778   1.420578   11.80625   9.855399    .144142
                         360.    .046293    .029775    .248179    .354035   1.340466    .014643    .006506   3042.903   60.85806
                          0.0        0.0        0.0        0.0        0.0
  15500     .0155  -806.00734 151.387687 654.619658 -806.00734 151.387687 654.619658 67053.0557 -400188.22 333135.165        0.0
                          0.0        0.0 -814.24357 153.597745 660.645824 67057.3081 -400189.24 333131.936 -967.84131 -507.04808
                   1474.88939 -957.39503 -503.23197   1460.627 467241.277 -733323.39  266082.11  .18758123 -.44402305 .256441821
                   -.88801E-6 .157143E-6 .645639E-6        0.0   109.9067   1.701778   1.420578   11.80625   9.855399    .144142
                         360.    .046293    .029775    .248179    .354035   1.340466    .014643    .006506   3042.903   60.85806
                          0.0        0.0        0.0        0.0        0.0
  16000      .016  -750.63314 17.6036012 733.029539 -750.63314 17.6036012 733.029539 132459.443 -419293.11 286833.663        0.0
                          0.0        0.0 -758.42311 18.4981834 739.924926 132463.443 -419293.44 286829.997 -776.92129 -721.42674
                   1498.34804 -768.23674 -715.42594 1483.66268 551752.549 -706126.77  154374.22 .248536257 -.44477578 .196239519
                   -.77298E-6 .188362E-7 .750588E-6        0.0   109.9067   1.701778   1.420578   11.80625   9.855399    .144142
                         360.    .046293    .029775    .248179    .354035   1.340466    .014643    .006506   3042.903   60.85806
                          0.0        0.0        0.0        0.0        0.0
  16500     .0165  -676.77634 -116.61371 793.390051 -676.77634 -116.61371 793.390051 194604.238  -428073.6 233469.365        0.0
                          0.0        0.0 -683.92859 -117.05644 800.985032 194607.888 -428073.24 233465.353 -566.87215 -918.04147
                   1484.91362 -560.16263 -910.00376 1470.16639 622677.841 -661542.97  38865.127 .303371548 -.43457667 .131205123
                   -.69196E-6 -.11829E-6 .852859E-6        0.0   109.9067   1.701778   1.420578   11.80625   9.855399    .144142
                         360.    .046293    .029775    .248179    .354035   1.340466    .014643    .006506   3042.903   60.85806
                          0.0        0.0        0.0        0.0        0.0
  17000      .017  -586.25415 -247.96005 834.214201 -586.25415 -247.96005 834.214201  251957.23 -426313.51 174356.277        0.0
                          0.0        0.0 -592.59313 -249.72892 842.322051 251960.441 -426312.46 174352.016 -342.86421  -1092.051
                   1434.91518  -338.2941 -1082.1742 1420.46835 678270.736 -600669.78 -77600.953 .350736518 -.41367669 .062940174
                   -.60771E-6 -.25833E-6 .865955E-6        0.0   109.9067   1.701778   1.420578   11.80625   9.855399    .144142
                         360.    .046293    .029775    .248179    .354035   1.340466    .014643    .006506   3042.903   60.85806
                          0.0        0.0        0.0        0.0        0.0
  17500     .0175  -481.29783  -373.2001 854.497925 -481.29783  -373.2001 854.497925 303106.201 -414056.16 110949.957        0.0
                          0.0        0.0 -486.66653 -376.25202 862.918551 303108.891 -414054.45 110945.554 -110.41451 -1239.1706
                   1349.58508 -108.09773  -1227.698 1335.79575 717162.359 -525006.11 -192156.24 .389464937 -.38259049 -.00687444
                   -.52494E-6  -.3913E-6 .916305E-6        0.0   109.9067   1.701778   1.420578   11.80625   9.855399    .144142
                         360.    .046293    .029775    .248179    .354035   1.340466    .014643    .006506   3042.903   60.85806
                          0.0        0.0        0.0        0.0        0.0
  18000      .018  -364.49005 -489.25088 853.740929 -364.49005 -489.25088 853.740929 346791.689 -391603.37  44811.682        0.0
                          0.0        0.0 -368.75544 -493.51111 862.266553 346793.795 -391601.04 44807.2448 124.755665 -1355.7777
                     1231.022 124.760832 -1342.9918 1218.23098  738395.06 -436415.05 -301980.01 .418603678 -.34208377 -.07651991
                   -.38903E-6 -.51197E-6 .900996E-6        0.0   109.9067   1.701778   1.420578   11.80625   9.855399    .144142
                         360.    .046293    .029775    .248179    .354035   1.340466    .014643    .006506   3042.903   60.85806
                          0.0        0.0        0.0        0.0        0.0
  18500     .0185  -238.70658 -593.25504 831.961624 -238.70658 -593.25504 831.961624 381938.016 -359508.01 -22430.006        0.0
                          0.0        0.0  -241.7651 -598.61796 840.383059 381939.485 -359505.12 -22434.368 356.852862  -1439.001
                   1082.14816 354.548455 -1425.2167 1070.66821 741446.026   -337078. -404368.02 .437435291 -.29315395 -.14428134
                   -.25799E-6 -.62541E-6 .855012E-6        0.0   109.9067   1.701778   1.420578   11.80625   9.855399    .144142
                         360.    .046293    .029775    .248179    .354035   1.340466    .014643    .006506   3042.903   60.85806
                          0.0        0.0        0.0        0.0        0.0
  19000      .019  -107.04566 -682.65115 789.696817 -107.04566 -682.65115 789.696817 407679.763 -318560.37 -89119.393        0.0
                          0.0        0.0 -108.82172 -688.98483 797.806555 407680.557 -318556.98 -89123.572 580.163106 -1486.7914
                   906.628279  575.60549  -1472.348 896.742481 726240.134 -229440.98 -496799.16 .445495186  -.2370054 -.20848979
                   -.10837E-6 -.73244E-6 .869215E-6        0.0   109.9067   1.701778   1.420578   11.80625   9.855399    .144142
                         360.    .046293    .029775    .248179    .354035   1.340466    .014643    .006506   3042.903   60.85806
                          0.0        0.0        0.0        0.0        0.0
  19500     .0195   27.251173 -755.23817 727.986998  27.251173 -755.23817 727.986998 423383.079 -269768.72 -153614.36        0.0
                          0.0        0.0 26.8017796  -762.3869 735.585123  423383.18 -269764.92 -153618.26 789.188682  -1497.972
                   708.783343 782.489344 -1483.2252 700.735825 693151.794 -116154.35 -576997.44 .442586099 -.17502128 -.26756482
                   .273739E-7 -.79657E-6 .794127E-6        0.0   109.9067   1.701778   1.420578   11.80625   9.855399    .144142
                         360.    .046293    .029775    .248179    .354035   1.340466    .014643    .006506   3042.903   60.85806
                          0.0        0.0        0.0        0.0        0.0
  20000       .02  160.876387 -809.22842 648.352035 160.876387 -809.22842 648.352035 428661.298 -214334.46 -214326.84        0.0
                          0.0        0.0 161.764407 -817.01601 655.251601 428660.705 -214330.35 -214330.35 978.780415 -1472.2676
                   493.487194 970.104809 -1457.5805 487.475648 642995.757 -7.6194875 -642988.14 .428779022 -.10872754 -.32005148
                   .156129E-6 -.80062E-6 .729749E-6        0.0   109.9067   1.701778   1.420578   11.80625   9.855399    .144142
                         360.    .046293    .029775    .248179    .354035   1.340466    .014643    .006506   3042.903   60.85806
                          0.0        0.0        0.0        0.0        0.0
  20500     .0205   290.54097 -843.29312 552.752145  290.54097 -843.29312 552.752145 423384.454 -153622.58 -269761.88        0.0
                          0.0        0.0 292.744277 -851.52768 558.783407  423383.18 -153618.26 -269764.92 1144.27196 -1410.3111
                   266.039129 1133.83409 -1396.0453 262.211175 577007.031   116139.3 -693146.33   .4044136 -.03975637 -.36465723
                   .311638E-6 -.93833E-6 .626664E-6        0.0   109.9067   1.701778   1.420578   11.80625   9.855399    .144142
                         360.    .046293    .029775    .248179    .354035   1.340466    .014643    .006506   3042.903   60.85806
                          0.0        0.0        0.0        0.0        0.0
  21000      .021  413.051509 -856.59316 443.541648 413.051509 -856.59316 443.541648 407682.482 -89127.999 -318554.48        0.0
                          0.0        0.0 416.516657 -865.07234 448.555683 407680.557 -89123.572 -318556.98   1281.589  -1313.628
                   32.0390253 1269.64466 -1300.1348 30.4901391 496810.481 229426.484 -726236.96 .370090323  .03019366 -.40028398
                   .445349E-6  -.8986E-6 .453205E-6        0.0   109.9067   1.701778   1.420578   11.80625   9.855399    .144142
[...]
                         360.    .046293    .029775    .248179    .354035   1.340466    .014643    .006506   3042.903   60.85806
                          0.0        0.0        0.0        0.0        0.0
 113000      .113  -243893.23 -187982.21 431875.436 -243893.23 -187982.21 431875.436 -243893.23 -187982.21 431875.436        0.0
                          0.0        0.0 -220212.68 -213204.27 433416.954 -251960.44 -174352.02 426312.457 -7008.4119 -646621.22
                   653629.636 -55911.022 -619857.64 675768.666 -55911.022 -619857.64 675768.665  90.880895  -102.5378 11.6569032
                   -.27972E-3 -.21608E-3 .495791E-3        0.0   109.9067   1.701778   1.420578   11.80625   9.855399    .144142
                         360.    .046293    .029775    .248179    .354035   1.340466    .014643    .006506   3042.903   60.85806
                          0.0        0.0        0.0        0.0        0.0
 113500     .1135  -200478.99 -225994.17 426473.164 -200478.99 -225994.17 426473.164 -200478.99 -225994.17 426473.164        0.0
                          0.0        0.0 -227193.98 -199842.13 427036.118 -194607.89 -233465.35  428073.24 -27351.851 -626878.25
                   654230.103 25515.1775 -652467.33 626952.157 25515.1778 -652467.33 626952.157 84.5701433 -75.721267 -8.8488756
                   -.22149E-3 -.23946E-3  .49004E-3        0.0   109.9067   1.701778   1.420578   11.80625   9.855399    .144142
                         360.    .046293    .029775    .248179    .354035   1.340466    .014643    .006506   3042.903   60.85806
                          0.0        0.0        0.0        0.0        0.0
 114000      .114  -143762.73 -279181.66  422944.39 -143762.73 -279181.66  422944.39 -143762.73 -279181.66  422944.39        0.0
                          0.0        0.0 -174203.19 -252660.96 426864.143 -132463.44   -286830.  419293.44 78457.7722  -679525.1
                   601067.328 135418.921 -702126.05 566707.125 135418.922 -702126.05 566707.125 272.149045 -241.72209 -30.426951
                   -.17144E-3 -.31695E-3  .48846E-3        0.0   109.9067   1.701778   1.420578   11.80625   9.855399    .144142
                         360.    .046293    .029775    .248179    .354035   1.340466    .014643    .006506   3042.903   60.85806
                          0.0        0.0        0.0        0.0        0.0
 114500     .1145  -69621.964 -333336.52 402958.487 -69621.964 -333336.52 402958.487 -69621.964 -333336.52 402958.487        0.0
                          0.0        0.0 -51194.515 -359540.17  410734.69 -67057.308 -333131.94 400189.244  308345.66 -770274.86
                   461929.204 263714.558 -736295.01 472580.452  263714.56 -736295.01 472580.451 334.245604 -259.78389 -74.461712
                   -.82924E-4 -.41469E-3 .453979E-3        0.0   109.9067   1.701778   1.420578   11.80625   9.855399    .144142
                         360.    .046293    .029775    .248179    .354035   1.340466    .014643    .006506   3042.903   60.85806
                          0.0        0.0        0.0        0.0        0.0
 115000      .115  15842.5006 -388819.69 372977.192 15842.5006 -388819.69 372977.192  15842.501 -388819.69 372977.191        0.0
                          0.0        0.0  38408.574 -416597.18  378188.61 .127058E-4 -371231.06  371231.06 455005.758 -794785.79
                   339780.036 404662.193 -761796.88 357134.691 404662.193 -761796.88  357134.69 187.336552 -63.473954  -123.8626
                   .189873E-4 -.46351E-3 .406355E-3        0.0   109.9067   1.701778   1.420578   11.80625   9.855399    .144142
                         360.    .046293    .029775    .248179    .354035   1.340466    .014643    .006506   3042.903   60.85806
                          0.0        0.0        0.0        0.0        0.0
 115500     .1155  70665.3065 -406080.31 335415.007 70665.3065 -406080.31 335415.007 70665.3067 -406080.31 335415.007        0.0
                          0.0        0.0 60601.8188 -397097.19 336495.375 67057.3081 -400189.24 333131.936 457699.013 -733592.57
                   275893.557  476745.62 -741495.32 264749.701  476745.62 -741495.32   264749.7 111.650264 30.6095063 -142.25977
                   .857096E-4 -.47416E-3 .388473E-3        0.0   109.9067   1.701778   1.420578   11.80625   9.855399    .144142
                         360.    .046293    .029775    .248179    .354035   1.340466    .014643    .006506   3042.903   60.85806
                          0.0        0.0        0.0        0.0        0.0
 116000      .116  115584.799 -399432.66 283847.859 115584.799 -399432.66 283847.859 115584.799 -399432.66 283847.859        0.0
                          0.0        0.0 100180.642   -386897. 286716.358 132463.443 -419293.44 286829.997 487077.641 -673613.36
                   186535.716 515017.457 -683280.52 168263.061 515017.457 -683280.52  168263.06 198.333632 -47.363413 -150.97022
                   .133802E-3 -.45087E-3 .317097E-3        0.0   109.9067   1.701778   1.420578   11.80625   9.855399    .144142
                         360.    .046293    .029775    .248179    .354035   1.340466    .014643    .006506   3042.903   60.85806
                          0.0        0.0        0.0        0.0        0.0
 116500     .1165  188463.212 -424934.08 236470.868 188463.212 -424934.08 236470.868 188463.213 -424934.08 236470.868        0.0
                          0.0        0.0 186871.535 -427469.06  240597.53 194607.888 -428073.24 233465.353 614340.599 -668066.59
                   53725.9948 613397.292 -661404.95 48007.6564 613397.293 -661404.95 48007.6554 283.686633 -111.65024 -172.03639
                    .19619E-3 -.47099E-3 .274777E-3        0.0   109.9067   1.701778   1.420578   11.80625   9.855399    .144142
                         360.    .046293    .029775    .248179    .354035   1.340466    .014643    .006506   3042.903   60.85806
                          0.0        0.0        0.0        0.0        0.0
 117000      .117  268802.733 -446973.05 178170.314 268802.733 -446973.05 178170.314 268802.733 -446973.05 178170.313        0.0
                          0.0        0.0 279948.182 -461517.75 181569.563 251960.441 -426312.46 174352.016 741465.927 -643087.31
                   -98378.619  715775.78 -625143.36 -90632.419  715775.78 -625143.36  -90632.42 228.846759 -16.668524 -212.17824
                   .326038E-3  -.4953E-3 .198483E-3        0.0   109.9067   1.701778   1.420578   11.80625   9.855399    .144142
                         360.    .046293    .029775    .248179    .354035   1.340466    .014643    .006506   3042.903   60.85806
                          0.0        0.0        0.0        0.0        0.0
 117500     .1175  308199.384 -414064.28 105864.896 308199.384 -414064.28 105864.896 308199.384 -414064.28 105864.896        0.0
                          0.0        0.0 324951.691 -429293.58 104341.887 303108.891 -414054.45 110945.554 754245.269 -533635.47
                    -220609.8 722263.664 -519929.18 -202334.49 722263.664 -519929.18 -202334.49 93.4256961 127.758694 -221.18439
                    .35205E-3 -.46418E-3 .112124E-3        0.0   109.9067   1.701778   1.420578   11.80625   9.855399    .144142
                         360.    .046293    .029775    .248179    .354035   1.340466    .014643    .006506   3042.903   60.85806
                          0.0        0.0        0.0        0.0        0.0
 118000      .118  340008.538 -386518.56 46510.0193 340008.538 -386518.56 46510.0193 340008.538 -386518.56 46510.0189        0.0
                          0.0        0.0 340456.204 -387607.43 47151.2277 346793.795 -391601.04 44807.2447 728063.635 -434758.66
                   -293304.98 726527.094 -433028.58 -293498.52 726527.094 -433028.58 -293498.52 43.7636403 166.610831 -210.37447
                   .413916E-3 -.41598E-3 .530109E-4        0.0   109.9067   1.701778   1.420578   11.80625   9.855399    .144142
                         360.    .046293    .029775    .248179    .354035   1.340466    .014643    .006506   3042.903   60.85806
                          0.0        0.0        0.0        0.0        0.0
 118500     .1185  374592.174 -351848.98 -22743.199 374592.174 -351848.98 -22743.199 374592.174 -351848.98 -22743.199        0.0
                          0.0        0.0 357753.983  -338232.6 -19521.383 381939.485 -359505.12 -22434.368 695986.583 -318711.22
                   -377275.37 726441.149 -329105.78 -397335.37 726441.149 -329105.78 -397335.37 138.600938 69.6706021 -208.27154
                   .461474E-3 -.40413E-3 -.24576E-4        0.0   109.9067   1.701778   1.420578   11.80625   9.855399    .144142
                         360.    .046293    .029775    .248179    .354035   1.340466    .014643    .006506   3042.903   60.85806
                          0.0        0.0        0.0        0.0        0.0
 119000      .119  409772.639 -320377.95 -89394.685 409772.639 -320377.95 -89394.685 409772.639 -320377.95 -89394.686        0.0
                          0.0        0.0 418886.021 -331800.56 -87085.463 407680.557 -318556.98 -89123.572 750686.579  -244715.1
                   -505971.48 730150.592 -230983.27 -499167.32 730150.592 -230983.27 -499167.32 173.491776 45.4483227  -218.9401
                   .443331E-3 -.36158E-3 -.96291E-4        0.0   109.9067   1.701778   1.420578   11.80625   9.855399    .144142
                         360.    .046293    .029775    .248179    .354035   1.340466    .014643    .006506   3042.903   60.85806
                          0.0        0.0        0.0        0.0        0.0
 119500     .1195  434671.375 -281313.25 -153358.12 434671.375 -281313.25 -153358.12 434671.375 -281313.25 -153358.12        0.0
                          0.0        0.0 465546.551 -311507.52 -154039.03  423383.18 -269764.92 -153618.26 777054.069 -157468.49
                   -619585.58 715984.628 -127955.13  -588029.5 715984.627 -127955.13  -588029.5 21.2869697  195.30834 -216.59531
                   .477486E-3 -.34294E-3 -.16369E-3        0.0   109.9067   1.701778   1.420578   11.80625   9.855399    .144142
                         360.    .046293    .029775    .248179    .354035   1.340466    .014643    .006506   3042.903   60.85806
                          0.0        0.0        0.0        0.0        0.0
  % % % % % %   Suspended simulation;  plot data space exhausted;  SPY SPACE is required.   LIMBUF =  840000.
  % % % % % %   Suspended simulation;  plot data space exhausted;  SPY SPACE is required.   LIMBUF =  840000.
  +++  Time-sharing disabled.   Send  user-keyed interrupt to silence alarm.
   Current values.  INDBUF  INDBEG  LIMBUF  MFLUSH  NUMDCD  KCARD1  KCARD2
                    839994      50  840000    1007     230       1     231
Plot timespan now in memory (in sec) = 1.04985997E-01   1.19985000E-01
   ++++  Begin plot-data copy from memory to disk.   MFLUSH, INDBUF, N4, Tbeg,  Tend = 1008  839994       1  -1.00000E+00
1.00000E+19
 120000       .12  437291.328 -219366.47 -217924.86 437291.328 -219366.47 -217924.86 437291.328 -219366.47 -217924.86        0.0
                          0.0        0.0 436547.578 -214858.42 -221689.15 428660.705 -214330.35 -214330.35 651406.001 6830.73144
                   -658236.73 656657.797 -1441.6095 -655216.19 656657.796 -1441.6085 -655216.19 -115.06735 308.740047  -193.6727
                   .494734E-3 -.24222E-3  -.2525E-3        0.0   109.9067   1.701778   1.420578   11.80625   9.855399    .144142
                         360.    .046293    .029775    .248179    .354035   1.340466    .014643    .006506   3042.903   60.85806
                          0.0        0.0        0.0        0.0        0.0

Extrema of output variables follow.   Order and column positioning are the same as for the preceding time-step loop output.
Variable maxima :  459201.163 492933.944 436108.389 459201.163 492933.944 436108.389 459201.163 557768.214 446016.979        0.0
                          0.0        0.0 522137.051  519866.04 443485.726 428660.705 428660.703 428660.703 916236.221 863567.306
                   818892.449 796227.446 792679.962 776607.398 796227.446 792679.961 776607.398  486.61694 670.007963 268.952306
                   .561763E-3 .560199E-3 .535339E-3        0.0   109.9067   1.701778   1.420578   11.80625   9.855399    .144142
                         360.    .046293    .029775    .248179    .354035   1.340466    .014643    .006506   3042.903   60.85806
                          0.0        0.0        0.0        0.0        0.0
Times of maxima :     .059723    .048124    .073244    .059723    .048124    .073244    .059723    .047237    .053491        0.0
                          0.0        0.0    .059394    .067066    .053938        0.0    .006667    .113333    .059385    .064914
                      .071914    .059167    .065203    .071582    .059167    .065203    .071582    .056743    .046734    .048193
                       .05981    .067315    .113473        0.0        0.0        0.0        0.0        0.0        0.0        0.0
                          0.0        0.0        0.0        0.0        0.0        0.0        0.0        0.0        0.0        0.0
                          0.0        0.0        0.0        0.0        0.0
Variable minima :  -464817.65 -483862.42 -437142.74 -464817.65 -483862.42 -437142.74 -464817.65 -483862.42 -437142.74        0.0
                          0.0        0.0 -490970.28 -522970.97 -438546.46 -428660.71  -428660.7  -428660.7 -893076.68 -868018.83
                   -838110.12 -838880.77 -799961.14 -776751.95 -884935.77 -799961.14 -776751.95 -501.18897 -441.87779 -366.80825
                   -.56152E-3 -.57989E-3 -.53573E-3        0.0   109.9067   1.701778   1.420578   11.80625   9.855399    .144142
                         360.    .046293    .029775    .248179    .354035   1.340466    .014643    .006506   3042.903   60.85806
                          0.0        0.0        0.0        0.0        0.0
Times of minima :     .069515    .057049    .063321    .069515    .057049    .063321    .069515    .057049    .063321        0.0
                          0.0        0.0    .069113    .057263    .062875        .01    .016667    .103333    .069112    .054826
                      .061752    .049003    .054819    .061387    .047239    .054819    .061387    .064377    .071962    .046483
                      .069488    .057052    .063318        0.0        0.0        0.0        0.0        0.0        0.0        0.0
                          0.0        0.0        0.0        0.0        0.0        0.0        0.0        0.0        0.0        0.0
                          0.0        0.0        0.0        0.0        0.0

Blank card terminating all plot cards.            |BLANK PLOT

Memory storage figures for the preceding, now-completed data case.  -------------------------------  Present   Program
A value of  "-9999"  indicates that no figure is available.         28-Feb-22  19:13:59              figure     limit  (name)
     Size List 1.   Number of electric network nodes.                                                   37      6000  (LBUS)
     Size List 2.   Number of electric network branches.                                                39     10000  (LBRNCH)
     Size List 3.   Number of data values in R, L, C tables.                                            45    192000  (LDATA)
     Size List 4.   Number of electric network sources.                                                  3       900  (LEXCT)
     Size List 5.   Storage for [Y] and triangularized [Y].   No. times =    3     Factors =    66     189    420000  (LYMAT)
     Size List 6.   Number of entries in switch table.                  No. flops = 18                  21      1200  (LSWTCH)
     Size List 7.   Number of distinct ALPHANUMERIC data names plus program SPY variables.              25     15000  (LSIZE7)
     Size List 8.   History points of distributed lines.                                              1477    120000  (LPAST)
     Size List 9.   Number of nonlinear elements.                                                        0      2250  (LNONL)
     Size List 10.  Points of nonlinear characteristics.                                                 0      3800  (LCHAR)
     Size List 11.  Number of Type-59 S.M. outputs.                                                      0       720  (LSMOUT)
     Size List 12.  Total number of EMTP output variables.                                              55      2000  (LSIZ12)
     Size List 13.  Working space for batch/SPY plotting.                                            -9999     72800  (LSIZ13)
     Size List 14.  S.M./U.M. connections to TACS.                                                   -9999       510  (LBSTAC)
     Size List 15.  Character storage in bytes for MODELS.                                            3300     90000  (LCTACS)
     Size List 16.  Total number of Type-59 S.M. masses.                                                 0       800  (LIMASS)
     Size List 17.  Number of Type-59 Synchronous machines.                                              0        90  (LSYN)
     Size List 18.  Branch and switch power/energy outputs.                                              0       254  (MAXPE)
     Size List 19.  Total floating-point TACS table space.                                              23    120000  (LTACST)
     Size List 20.  Non-copied recursive convolution data.                                               0    100000  (LFSEM)
     Size List 21.  Total modal/phase [T] matrix storage.                                                9      3000  (LFD)
     Size List 22.  Total recursive convolution history.                                                 0     15000  (LHIST)
     Size List 23.  Giant vectors for renumbering, phasors;  also extrema accumulation.                  93    192000  (LSIZ23)
     Size List 24.  Peak phases of compensation for data.                                                0       120  (LCOMP)
     Size List 25.  Total table space for all U.M usage.                                             -9999     45000  (LSPCUM)
     Size List 26.  Square of max number of coupled phases.                                              9    260000  (LSIZ26)
     Size List 27.  Maximum number of MODELS top variables.                                             44       600  (LSIZ27)
     Size List 28.  MODELS.  Total work space is divided into INTEGER and REAL.  1st, REAL:           1780    210000  (LRTACS)
                             Second  and last,  statistics for INTEGER work space.                    6838         0  (LITACS)
     Size List 29.  RAM disk used by "TAPSAV" table saving (limit is "LABCOM" size LTLABL).          -9999       600  (LSIZ29)
     Size List 30.  Taku Noda frequency-dependent circuits.                                              0        19  (LSIZ30)
Timing figures characterizing central processor (CP) solution speed.  ----------------------------   CP sec  Wait sec  Real sec
     Data input time (through blank card ending branches) ....                                       0.000     0.000     0.000
     Node renumbering and phasor solution  ....                                                      0.016     0.000     0.016
     After phasor solution, but before time-step loop  ....                                          0.000     0.000     0.000
     Integration of equations (time-step loop)  ....                                                 1.156     0.000     1.156
     Plotting or STATISTICS termination overlays ....                                                0.000     0.000     0.000
                                                                                                    ---------------------------
                                                                                          Totals      1.172     0.000     1.172

