   ---   236   cards of disk file read into card cache cells  1   onward.
 Comment card is ignored.      |C   LBUS  LBRNCH   LDATA   LEXCT   LYMAT  LSWTCH
 Limit CIDEAL cards =   200    |CARDS        200 { Limit of CIDEAL will be 2 mor
 1st card (Lists  1-10).       |    6000   10000  192000     900  420000    120
 Comment card is ignored.      |C LSMOUT  LSIZ12  LSIZ13  LBSTAC  LCTACS  LIMASS
 2nd card (Lists 11-20).       |     720    2000   72800     510   90000     80
 Comment card is ignored.      |C    LFD   LHIST  LSIZ23   NCOMP  LSPCUM  LSIZ26
 3rd card (Lists 21-30).       |    3000   15000  192000     120   45000  26000
 4th card (Lists 31-32).       |     200     300     { Optional card for Lists
 Comment card is ignored.      |C  LWORK  LMARTI
 Supplemental offsets.         |  840000     742
 <===> Done with  "/"-card sorting by data class.    Remember that the source file appears different from interpreted input data.
Alternative Transients Program (ATP),  GNU Linux or DOS.  All rights reserved by Can/Am user group of Portland, Oregon, USA.
 Date (dd-mth-yy) and time of day (hh.mm.ss) = 28-Feb-22  19:21:15   Name of disk plot file is  draw6.3\bernal\energizacion1267.pl4
Consult the 860-page ATP Rule Book of the Can/Am EMTP User Group in Portland,  Oregon, USA.  Source code date is 12 August 2008.
Total size of LABCOM tables = 10913436 INTEGER words.  31 VARDIM  List Sizes follow:  6002  10K  192K  900  420K  1200  15K
  120K  2250  3800  720  2K  72800  510  90K  800  90  254  120K  100K  3K  15K  192K  120  45K  260K  600  210K  1100  60  200
--------------------------------------------------+--------------------------------------------------------------------------------
Descriptive interpretation of input data cards.   |  Input data card images are shown below, all 80 columns, character by character
                                                  0         1         2         3         4         5         6         7         8
                                                  012345678901234567890123456789012345678901234567890123456789012345678901234567890
--------------------------------------------------+--------------------------------------------------------------------------------
Comment card.   NUMDCD = 1.                       |C data:C:\ATP\ATPDRAW6.3\BERNAL\ENERGIZACION1267.ATP
Marker card preceding new EMTP data case.         |BEGIN NEW DATA CASE
Comment card.   NUMDCD = 3.                       |C --------------------------------------------------------
Comment card.   NUMDCD = 4.                       |C Generated by ATPDRAW  febrero, lunes 28, 2022
Comment card.   NUMDCD = 5.                       |C A Bonneville Power Administration program
Comment card.   NUMDCD = 6.                       |C by H. K. Høidalen at SEfAS/NTNU - NORWAY 1994-2016
Comment card.   NUMDCD = 7.                       |C --------------------------------------------------------
Comment card.   NUMDCD = 8.                       |C  dT  >< Tmax >< Xopt >< Copt ><Epsiln>
Misc. data.     1.000E-06   1.200E-01   5.000E+01 |   1.E-6     .12     50.
Misc. data.    500    1  0  1  1  0  0  0  0  0   |     500       1       0       1       1       0       0       0       0
  ///  Warning.  Nonzero XOPT or COPT differs from the power frequency of  6.00000000E+01  Hz.   Did the user really want this?
No TACS data,  but MODELS data begins (next).     |MODELS
      Another ordinary MODELS data card.          |OUTPUT
      Another ordinary MODELS data card.          |  AnVol
      Another ordinary MODELS data card.          |  LONG
      Another ordinary MODELS data card.          |  R0F
      Another ordinary MODELS data card.          |  R1F
      Another ordinary MODELS data card.          |  X0F
      Another ordinary MODELS data card.          |  X1F
      Another ordinary MODELS data card.          |  RDIVX
      Another ordinary MODELS data card.          |  RINSER
      Another ordinary MODELS data card.          |  CLOSE1
      Another ordinary MODELS data card.          |  RPpos
      Another ordinary MODELS data card.          |  RPcero
      Another ordinary MODELS data card.          |  LPpos
      Another ordinary MODELS data card.          |  LPcero
      Another ordinary MODELS data card.          |  CPpos
      Another ordinary MODELS data card.          |  CPcero
      Another ordinary MODELS data card.          |  Xp
      Another ordinary MODELS data card.          |  CR
      Another ordinary MODELS data card.          |  SIMET
      Another ordinary MODELS data card.          |  ENC1
      Another ordinary MODELS data card.          |  ENC2
      Another ordinary MODELS data card.          |  ENC1AS
      Another ordinary MODELS data card.          |  ENC2AS
      Another ordinary MODELS data card.          |MODEL DEFAULT
      Another ordinary MODELS data card.          |DATA AnVol,LONG,R0F,R1F,X0F,X1F,RDIVX,RINSER,CLOSE1,RPpos,RPcero,LPpos,LPcero
      Another ordinary MODELS data card.          |OUTPUT o1,o2,o3, o4, o5, o6, o7, o8, o9, o10, o11, o12, o13
      Another ordinary MODELS data card.          |VAR o1,o2,o3, o4, o5, o6, o7, o8, o9, o10, o11, o12, o13
      Another ordinary MODELS data card.          |INIT
      Another ordinary MODELS data card.          |  o1:=AnVol
      Another ordinary MODELS data card.          |  o2:=LONG
      Another ordinary MODELS data card.          |  o3:=R0F
      Another ordinary MODELS data card.          |  o4:=R1F
      Another ordinary MODELS data card.          |  o5:=X0F
      Another ordinary MODELS data card.          |  O6:=X1F
      Another ordinary MODELS data card.          |  o7:=RDIVX
      Another ordinary MODELS data card.          |  o8:=RINSER
      Another ordinary MODELS data card.          |  o9:=CLOSE1
      Another ordinary MODELS data card.          |  o10:=RPpos
      Another ordinary MODELS data card.          |  o11:=RPcero
      Another ordinary MODELS data card.          |  o12:=LPpos
      Another ordinary MODELS data card.          |  o13:=LPcero
      Another ordinary MODELS data card.          |
      Another ordinary MODELS data card.          |ENDINIT
      Another ordinary MODELS data card.          |EXEC
      Another ordinary MODELS data card.          |ENDEXEC
      Another ordinary MODELS data card.          |ENDMODEL
      Another ordinary MODELS data card.          |MODEL DEFAULT1
      Another ordinary MODELS data card.          |DATA CPpos,CPcero,Xp,CR,SIMET,ENC1,ENC2,ENC1AS,ENC2AS
      Another ordinary MODELS data card.          |OUTPUT o1, o2, o3, o4, o5, o6, o7, o8, o9
      Another ordinary MODELS data card.          |VAR o1, o2, o3, o4, o5, o6, o7, o8, o9
      Another ordinary MODELS data card.          |INIT
      Another ordinary MODELS data card.          |  o1:=CPpos
      Another ordinary MODELS data card.          |  o2:=CPcero
      Another ordinary MODELS data card.          |  o3:=Xp
      Another ordinary MODELS data card.          |  o4:=CR
      Another ordinary MODELS data card.          |  o5:=SIMET
      Another ordinary MODELS data card.          |  o6:=ENC1
      Another ordinary MODELS data card.          |  o7:=ENC2
      Another ordinary MODELS data card.          |  o8:=ENC1AS
      Another ordinary MODELS data card.          |  o9:=ENC2AS
      Another ordinary MODELS data card.          |
      Another ordinary MODELS data card.          |ENDINIT
      Another ordinary MODELS data card.          |EXEC
      Another ordinary MODELS data card.          |ENDEXEC
      Another ordinary MODELS data card.          |ENDMODEL
      Another ordinary MODELS data card.          |USE DEFAULT AS DEFAULT
      Another ordinary MODELS data card.          |DATA
      Another ordinary MODELS data card.          |  AnVol:=      0.0
      Another ordinary MODELS data card.          |  LONG:= 89.05925
      Another ordinary MODELS data card.          |  R0F:= 0.696068
      Another ordinary MODELS data card.          |  R1F:= 0.870259
      Another ordinary MODELS data card.          |  X0F:= 6.886248
      Another ordinary MODELS data card.          |  X1F:= 8.609533
      Another ordinary MODELS data card.          |  RDIVX:= 0.101081
      Another ordinary MODELS data card.          |  RINSER:=     400.
      Another ordinary MODELS data card.          |  CLOSE1:= 0.059024
      Another ordinary MODELS data card.          |  RPpos:= 0.025093
      Another ordinary MODELS data card.          |  RPcero:= 0.354984
      Another ordinary MODELS data card.          |  LPpos:= 0.213086
      Another ordinary MODELS data card.          |  LPcero:= 0.836537
      Another ordinary MODELS data card.          |OUTPUT
      Another ordinary MODELS data card.          |  AnVol:=o1
      Another ordinary MODELS data card.          |  LONG:=o2
      Another ordinary MODELS data card.          |  R0F:=o3
      Another ordinary MODELS data card.          |  R1F:=o4
      Another ordinary MODELS data card.          |  X0F:=o5
      Another ordinary MODELS data card.          |  X1F:=o6
      Another ordinary MODELS data card.          |  RDIVX:=o7
      Another ordinary MODELS data card.          |  RINSER:=o8
      Another ordinary MODELS data card.          |  CLOSE1:=o9
      Another ordinary MODELS data card.          |  RPpos:=o10
      Another ordinary MODELS data card.          |  RPcero:=o11
      Another ordinary MODELS data card.          |  LPpos:=o12
      Another ordinary MODELS data card.          |  LPcero:=o13
      Another ordinary MODELS data card.          |ENDUSE
      Another ordinary MODELS data card.          |USE DEFAULT1 AS DEF
      Another ordinary MODELS data card.          |DATA
      Another ordinary MODELS data card.          |  CPpos:= 0.010013
      Another ordinary MODELS data card.          |  CPcero:=  0.00767
      Another ordinary MODELS data card.          |  Xp:= 5491.719
      Another ordinary MODELS data card.          |  CR:= 109.8344
      Another ordinary MODELS data card.          |  SIMET:=      0.0
      Another ordinary MODELS data card.          |  ENC1:=      0.0
      Another ordinary MODELS data card.          |  ENC2:=      0.0
      Another ordinary MODELS data card.          |  ENC1AS:=       1.
      Another ordinary MODELS data card.          |  ENC2AS:=      0.0
      Another ordinary MODELS data card.          |OUTPUT
      Another ordinary MODELS data card.          |  CPpos:=o1
      Another ordinary MODELS data card.          |  CPcero:=o2
      Another ordinary MODELS data card.          |  Xp:=o3
      Another ordinary MODELS data card.          |  CR:=o4
      Another ordinary MODELS data card.          |  SIMET:=o5
      Another ordinary MODELS data card.          |  ENC1:=o6
      Another ordinary MODELS data card.          |  ENC2:=o7
      Another ordinary MODELS data card.          |  ENC1AS:=o8
      Another ordinary MODELS data card.          |  ENC2AS:=o9
      Another ordinary MODELS data card.          |ENDUSE
      Another ordinary MODELS data card.          |RECORD
      Another ordinary MODELS data card.          |  DEFAULT.o1 AS AnVOL
      Another ordinary MODELS data card.          |  DEFAULT.o2 AS LONG
      Another ordinary MODELS data card.          |  DEFAULT.o3 AS R0F
      Another ordinary MODELS data card.          |  DEFAULT.o4 AS R1F
      Another ordinary MODELS data card.          |  DEFAULT.o5 AS X0F
      Another ordinary MODELS data card.          |  DEFAULT.o6 AS X1F
      Another ordinary MODELS data card.          |  DEFAULT.o7 AS RDIVX
      Another ordinary MODELS data card.          |  DEFAULT.o8 AS RINSER
      Another ordinary MODELS data card.          |  DEFAULT.o9 AS CLOSE1
      Another ordinary MODELS data card.          |  DEFAULT.o10 AS RPpos
      Another ordinary MODELS data card.          |  DEFAULT.o11 AS RPcero
      Another ordinary MODELS data card.          |  DEFAULT.o12 AS LPpos
      Another ordinary MODELS data card.          |  DEFAULT.o13 AS LPcero
      Another ordinary MODELS data card.          |  DEF.o1 AS CPpos
      Another ordinary MODELS data card.          |  DEF.o2 AS CPcero
      Another ordinary MODELS data card.          |  DEF.o3 AS Xp
      Another ordinary MODELS data card.          |  DEF.o4 AS CR
      Another ordinary MODELS data card.          |  DEF.o5 AS SIMET
      Another ordinary MODELS data card.          |  DEF.o6 AS ENC1
      Another ordinary MODELS data card.          |  DEF.o7 AS ENC2
      Another ordinary MODELS data card.          |  DEF.o8 AS ENC1AS
      Another ordinary MODELS data card.          |  DEF.o9 AS ENC2AS
Termination of data for Laurent Dube`s MODELS.    |ENDMODELS
Comment card.   NUMDCD = 153.                     |C        1         2         3         4         5         6         7         8
Comment card.   NUMDCD = 154.                     |C 345678901234567890123456789012345678901234567890123456789012345678901234567890
Optional blank card follows last of MODELS data.  |BLANK MODELS
Comment card.   NUMDCD = 156.                     |C < n1 >< n2 ><ref1><ref2>< R  >< L  >< C  >
Comment card.   NUMDCD = 157.                     |C < n1 >< n2 ><ref1><ref2>< R  >< A  >< B  ><Leng><><>0
1st of coupled R-L.   6.96070E-01  2.19196E-02    |51IFUENASB1A              .696076.8862477855
2nd coil. 8.703E-01 2.740E-02 0.000E+00 0.000E+00 |52IFUENBSB1B              .870268.6095327784
Zca, Zcc=-5.806E-02-1.828E-03 8.122E-01 2.558E-02 |53IFUENCSB1C
Series R-L-C.   1.000E+09  0.000E+00  0.000E+00   |  SB1A                      1.E9                                               0
Series R-L-C.   1.000E+09  0.000E+00  0.000E+00   |  SB1B                      1.E9                                               0
Series R-L-C.   1.000E+09  0.000E+00  0.000E+00   |  SB1C                      1.E9                                               0
Series R-L-C.   1.098E+02  1.748E+01  0.000E+00   |  RSNSHA                  109.835491.7                                         0
Series R-L-C.   1.098E+02  1.748E+01  0.000E+00   |  RSNSHB                  109.835491.7                                         0
Series R-L-C.   1.098E+02  1.748E+01  0.000E+00   |  RSNSHC                  109.835491.7                                         0
Series R-L-C.   1.000E+09  0.000E+00  0.000E+00   |  RSNNHA                    1.E9                                               0
Series R-L-C.   1.000E+09  0.000E+00  0.000E+00   |  RSNNHB                    1.E9                                               0
Series R-L-C.   1.000E+09  0.000E+00  0.000E+00   |  RSNNHC                    1.E9                                               0
Series R-L-C.   1.000E+09  0.000E+00  0.000E+00   |  SE2A                      1.E9                                               0
Series R-L-C.   1.000E+09  0.000E+00  0.000E+00   |  SE2B                      1.E9                                               0
Series R-L-C.   1.000E+09  0.000E+00  0.000E+00   |  SE2C                      1.E9                                               0
Series R-L-C.   2.500E+02  0.000E+00  3.000E-10   |  X0001B                    250.       .0003                                   0
Series R-L-C.   2.500E+02  0.000E+00  3.000E-10   |  X0002B                    250.       .0003                                   0
Series R-L-C.   1.000E-06  0.000E+00  0.000E+00   |  X0001ALN1A               1.E-6                                               0
Series R-L-C.   1.000E-06  0.000E+00  0.000E+00   |  SB1A  X0002A             1.E-6                                               0
Series R-L-C.   1.000E-06  0.000E+00  0.000E+00   |  X0001BLN1B               1.E-6                                               0
Series R-L-C.   1.000E-06  0.000E+00  0.000E+00   |  SB1B  X0002B             1.E-6                                               0
Series R-L-C.   1.000E-06  0.000E+00  0.000E+00   |  X0001CLN1C               1.E-6                                               0
Series R-L-C.   1.000E-06  0.000E+00  0.000E+00   |  SB1C  X0002C             1.E-6                                               0
Series R-L-C.   4.000E+02  0.000E+00  0.000E+00   |  XX0005X0002A              400.                                               0
Series R-L-C.   4.000E+02  0.000E+00  0.000E+00   |  XX0003X0002B              400.                                               0
Series R-L-C.   4.000E+02  0.000E+00  0.000E+00   |  XX0004X0002C              400.                                               0
Series R-L-C.   2.500E+02  0.000E+00  3.000E-10   |  X0001A                    250.       .0003                                   0
Series R-L-C.   1.000E+06  0.000E+00  0.000E+00   |  X0001AX0002A              1.E6                                               0
Series R-L-C.   1.000E+06  0.000E+00  0.000E+00   |  X0001BX0002B              1.E6                                               0
Series R-L-C.   1.000E+06  0.000E+00  0.000E+00   |  X0001CX0002C              1.E6                                               0
Series R-L-C.   2.500E+02  0.000E+00  3.000E-10   |  X0002C                    250.       .0003                                   0
Series R-L-C.   2.500E+02  0.000E+00  3.000E-10   |  X0002A                    250.       .0003                                   0
Series R-L-C.   2.500E+02  0.000E+00  3.000E-10   |  X0001C                    250.       .0003                                   0
Series R-L-C.   1.250E+02  0.000E+00  6.000E-10   |  X0001AX0002A              125.       .0006                                   0
Series R-L-C.   1.250E+02  0.000E+00  6.000E-10   |  X0001BX0002B              125.       .0006                                   0
Series R-L-C.   1.250E+02  0.000E+00  6.000E-10   |  X0001CX0002C              125.       .0006                                   0
 3.550E-01 8.365E-01 7.670E-03 5.892E+02 4.025E-04|-1LN1A  VFF2A             .35498.83654.0076789.059 0 0                         0
 2.509E-02 2.131E-01 1.001E-02 2.603E+02 2.321E-04|-2LN1B  VFF2B             .02509.21309.0100189.059 0 0                         0
3rd or later transposed distributed phase.        |-3LN1C  VFF2C                                                                  0
Blank card ending branches.  IBR, NTOT = 39  31   |BLANK BRANCH
Comment card.   NUMDCD = 198.                     |C < n 1>< n 2>< Tclose ><Top/Tde ><   Ie   ><Vf/CLOP ><  type  >
Switch.  -1.00E+00  1.00E+01  0.00E+00  0.00E+00  |  LN1A  COMPA        -1.       10.                                             0
Switch.  -1.00E+00  1.00E+01  0.00E+00  0.00E+00  |  LN1B  COMPB        -1.       10.                                             0
Switch.  -1.00E+00  1.00E+01  0.00E+00  0.00E+00  |  LN1C  COMPC        -1.       10.                                             0
Switch.  -1.00E+00  1.00E+01  0.00E+00  0.00E+00  |  VFF2A RSNNHA       -1.       10.                                             0
Switch.  -1.00E+00  1.00E+01  0.00E+00  0.00E+00  |  VFF2B RSNNHB       -1.       10.                                             0
Switch.  -1.00E+00  1.00E+01  0.00E+00  0.00E+00  |  VFF2C RSNNHC       -1.       10.                                             0
Switch.   2.00E+00 -1.00E+00  0.00E+00  0.00E+00  |  VFF2A SE2A          2.       -1.                                             0
Switch.   2.00E+00 -1.00E+00  0.00E+00  0.00E+00  |  VFF2B SE2B          2.       -1.                                             0
Switch.   2.00E+00 -1.00E+00  0.00E+00  0.00E+00  |  VFF2C SE2C          2.       -1.                                             0
Switch.   5.90E-02  1.00E+03  0.00E+00  0.00E+00  |  X0001BXX0003.059024077      1.E3                                             0
Switch.   5.90E-02  1.00E+03  0.00E+00  0.00E+00  |  X0001CXX0004.059024077      1.E3                                             0
Switch.   6.65E-02  1.00E+03  0.00E+00  0.00E+00  |  XX0005X0002A.066524077      1.E3                                             0
Switch.   6.65E-02  1.00E+03  0.00E+00  0.00E+00  |  XX0003X0002B.066524077      1.E3                                             0
Switch.   6.65E-02  1.00E+03  0.00E+00  0.00E+00  |  XX0004X0002C.066524077      1.E3                                             0
Switch.   5.90E-02  1.00E+03  0.00E+00  0.00E+00  |  X0001AXX0005.059024077      1.E3                                             0
Permanently-closed switch used for metering.      |  VFUENAIFUENA                                        MEASURING                1
Permanently-closed switch used for metering.      |  VFUENBIFUENB                                        MEASURING                1
Permanently-closed switch used for metering.      |  VFUENCIFUENC                                        MEASURING                1
Permanently-closed switch used for metering.      |  COMPA RSNSHA                                        MEASURING                1
Permanently-closed switch used for metering.      |  COMPB RSNSHB                                        MEASURING                1
Permanently-closed switch used for metering.      |  COMPC RSNSHC                                        MEASURING                1
Blank card ending switches.   KSWTCH = 21.        |BLANK SWITCH
Comment card.   NUMDCD = 221.                     |C < n 1><>< Ampl.  >< Freq.  ><Phase/T0><   A1   ><   T1   >< TSTART >< TSTOP  >
Source.   4.29E+05  5.00E+01  0.00E+00 -1.00E+00  |14VFUENA  428660.705       50.                                     -1.      100.
Source.   4.29E+05  5.00E+01 -1.20E+02 -1.00E+00  |14VFUENB  428660.705       50.     -120.                           -1.      100.
Source.   4.29E+05  5.00E+01 -2.40E+02 -1.00E+00  |14VFUENC  428660.705       50.     -240.                           -1.      100.
Blank card ends electric sources.  KCONST = 3     |BLANK SOURCE
Pi-equivalent branches of distributed circuits are added to the table of List Size 3 between indices  40   and  45.

Sinusoidal steady-state phasor solution, branch by branch.   All flows are away from a bus,  and the real part,  magnitude,  or  "P"
is printed above the imaginary part,  the angle,  or  "Q".   The first solution frequency  =  5.00000000E+01  Hertz.
  Bus K                        Phasor  node  voltage              Phasor  branch  current               Power flow       Power loss
             Bus M         Rectangular            Polar          Rectangular            Polar            P  and  Q        P  and  Q

 IFUENA                    428660.705       428660.705      .42725653715245  .44524896757659      91574.044215813  .08626306182651
                                  0.0              0.0      .12529363347162       16.3438558      -26854.22862798        0.8534055

            SB1A      428661.41189537   428661.4119121      -.4272565371524  .44524896757659      -91573.95795275
                      -3.787517198875       -0.0005062      -.1252936334716     -163.6561442      26855.082033465

 IFUENB                  -214330.3525       428660.705      -.1051207990822  .44524896757311      91574.044216691  .08626306182028
                      -371231.0601341     -120.0000000      -.4326618318332     -103.6561442      -26854.22862233        0.8534055

            SB1B      -214333.9860338   428661.4119121       .1051207990822  .44524896757311      -91573.95795363
                      -371229.7785649     -120.0005062      .43266183183318       76.3438558       26855.08202782

 IFUENC                  -214330.3525       428660.705      -.3221357380897  .44524896757344      91574.044215437  .08626306182352
                      371231.06013415      120.0000000      .30736819837227      136.3438558      -26854.22862686        0.8534055

            SB1C      -214327.4258616   428661.4119121       .3221357380897  .44524896757344      -91573.95795238
                      371233.56608209      119.9994938      -.3073681983723      -43.6561442      26855.082032345

 SB1A                 428661.41189537   428661.4119121       .4286614119E-3  .42866141191E-3      91.875303031239  91.875303031239
                      -3.787517198875       -0.0005062      -.3787517199E-8       -0.0005062      -.308108235E-19        0.0000000

            TERRA                 0.0              0.0      -.4286614119E-3  .42866141191E-3                  0.0
                                  0.0              0.0      .37875171989E-8      179.9994938                  0.0

 SB1B                 -214333.9860338   428661.4119121       -.214333986E-3  .42866141191E-3      91.875303031239  91.875303031239
                      -371229.7785649     -120.0005062      -.3712297786E-3     -120.0005062      .2428612866E-16        0.0000000

            TERRA                 0.0              0.0      .21433398603E-3  .42866141191E-3                  0.0
                                  0.0              0.0      .37122977856E-3       59.9994938                  0.0

 SB1C                 -214327.4258616   428661.4119121      -.2143274259E-3  .42866141191E-3      91.875303031239  91.875303031239
                      371233.56608209      119.9994938      .37123356608E-3      119.9994938      .2622901896E-14        0.0000000

            TERRA                 0.0              0.0      .21432742586E-3  .42866141191E-3                  0.0
                                  0.0              0.0      -.3712335661E-3      -60.0005062                  0.0

 RSNSHA               1021.8488031436  4408.9117353511      -.7769393981729  .80267135525201      35.380707838929  35.380707838929
                      -4288.860887652      -76.5987609      -.2016097123377     -165.4530398      1769.0998200769     1769.0998201

            TERRA                 0.0              0.0      .77693939817286  .80267135525201                  0.0
                                  0.0              0.0       .2016097123377       14.5469602                  0.0

 RSNSHB               -4225.186883576  4408.9117353514      .21387056655234  .80267135525206      35.380707838934  35.380707838934
                      1259.4834214771      163.4012391      .77365411218758       74.5469602      1769.0998200771     1769.0998201

            TERRA                 0.0              0.0      -.2138705665523  .80267135525206                  0.0
                                  0.0              0.0      -.7736541121876     -105.4530398                  0.0

 RSNSHC               3203.3380804326  4408.9117353515      .56306883162061  .80267135525209      35.380707838936  35.380707838936
                      3029.3774661754       43.4012391      -.5720443998499      -45.4530398      1769.0998200773     1769.0998201

            TERRA                 0.0              0.0      -.5630688316206  .80267135525209                  0.0
                                  0.0              0.0      .57204439984989      134.5469602                  0.0

 RSNNHA               1023.2222549586  4420.6542323787       .1023222255E-5  .44206542324E-5      .00977109192112  .00977109192112
                       -4300.60461554      -76.6167219      -.4300604616E-5      -76.6167219      -.119219887E-18        0.0000000

            TERRA                 0.0              0.0      -.1023222255E-5  .44206542324E-5                  0.0
                                  0.0              0.0      .43006046155E-5      103.3832781                  0.0

 RSNNHB                -4236.04397617   4420.654232379      -.4236043976E-5  .44206542324E-5      .00977109192113  .00977109192113
                      1264.1658412586      163.3832781      .12641658413E-5      163.3832781      -.224463731E-18        0.0000000

            TERRA                 0.0              0.0      .42360439762E-5  .44206542324E-5                  0.0
                                  0.0              0.0      -.1264165841E-5      -16.6167219                  0.0

 RSNNHC               3212.8217212114  4420.6542323792      .32128217212E-5  .44206542324E-5      .00977109192113  .00977109192113
                      3036.4387742821       43.3832781      .30364387743E-5       43.3832781      .1240903268E-18        0.0000000

            TERRA                 0.0              0.0      -.3212821721E-5  .44206542324E-5                  0.0
                                  0.0              0.0      -.3036438774E-5     -136.6167219                  0.0

 X0001B               -4225.186883716  4408.9117353677      -.1187128985E-3  .41553014143E-3      .21583162305E-4  .21583162305E-4
                      1259.4834210654      163.4012391      -.3982116851E-3     -106.6001109      -.9160178582192       -0.9160179

            TERRA                 0.0              0.0      .11871289853E-3  .41553014143E-3                  0.0
                                  0.0              0.0      .39821168511E-3       73.3998891                  0.0

 X0002B               -214333.9860337  428661.41191168      .03498710637141  .04040038626496      .20402390129515  .20402390129515
                      -371229.7785645     -120.0005062      -.0202013266424      -30.0018562      -8659.043306654    -8659.0433067

            TERRA                 0.0              0.0      -.0349871063714  .04040038626496                  0.0
                                  0.0              0.0      .02020132664241      149.9981438                  0.0

 X0001A                 1021.84880357  4408.9117353674      .42642955122574  .43477885070709      36.032555748053  .94516324503E-7
                      -4288.860887567      -76.5987609       .0847967385198       11.2467206       -957.773234679        0.0000000

            LN1A      1021.8488031436  4408.9117353511      -.4264295512257  .43477885070709      -36.03255565354
                      -4288.860887652      -76.5987609      -.0847967385198     -168.7532794      957.77323467899

 SB1A                 428661.41189537   428661.4119121      .42683677747846  .44484618705998       91483.99056549  .98944063609E-7
                      -3.787517198875       -0.0005062      .12529363724312       16.3590702      -26855.08204689              0.0

            X0002A    428661.41189494  428661.41191168      -.4268367774785  .44484618705998      -91483.99056539
                      -3.787517324169       -0.0005062      -.1252936372431     -163.6409298      26855.082046889

 X0001B               -4225.186883716  4408.9117353677      -.1397784217261  .43477890659105      36.031997071653  .94516348803E-7
                      1259.4834210654      163.4012391      -.4116973286727     -108.7532457      -957.7733789778              0.0

            LN1B      -4225.186883576  4408.9117353514      .13977842172608  .43477890659105      -36.03199697714
                      1259.4834214771      163.4012391      .41169732867274       71.2467543      957.77337897781

 SB1B                 -214333.9860338   428661.4119121      -.1048902049661  .44485100795139       91483.62465885  .98946209448E-7
                      -371229.7785649     -120.0005062      -.4323082976043     -103.6380342      -26859.99652892              0.0

            X0002B    -214333.9860337  428661.41191168      .10489020496607  .44485100795139      -91483.62465875
                      -371229.7785645     -120.0005062      .43230829760432       76.3619658       26859.99652892

 X0001C               3203.3380801459  4408.9117353679      -.2866513568733  .43477925001047      36.032037198895  .94516498128E-7
                      3029.3774665023       43.4012391      .32690059015295      131.2467536      -957.7741350567              0.0

            LN1C      3203.3380804326  4408.9117353515      .28665135687334  .43477925001047      -36.03203710438
                      3029.3774661754       43.4012391      -.3269005901529      -48.7532464      957.77413505674

 SB1C                 -214327.4258616   428661.4119121      -.3219174686819  .44482805650286      91479.848378932  .98935998949E-7
                      371233.56608209      119.9994938      .30698720365763      136.3599526      -26855.39637527              0.0

            X0002C    -214327.4258613  428661.41191168      .32191746868193  .44482805650286      -91479.84837883
                      371233.56608179      119.9994938      -.3069872036576      -43.6400474      26855.396375266

 XX0005               428661.41189494  428661.41191168                  0.0              0.0                  0.0              0.0
                      -3.787517324169       -0.0005062                  0.0              0.0                  0.0              0.0

            X0002A    428661.41189494  428661.41191168                  0.0              0.0                  0.0
                      -3.787517324169       -0.0005062                  0.0              0.0                  0.0

 XX0003               -214333.9860337  428661.41191168                  0.0              0.0                  0.0              0.0
                      -371229.7785645     -120.0005062                  0.0              0.0                  0.0              0.0

            X0002B    -214333.9860337  428661.41191168                  0.0              0.0                  0.0
                      -371229.7785645     -120.0005062                  0.0              0.0                  0.0

 XX0004               -214327.4258613  428661.41191168                  0.0              0.0                  0.0              0.0
                      371233.56608179      119.9994938                  0.0              0.0                  0.0              0.0

            X0002C    -214327.4258613  428661.41191168                  0.0              0.0                  0.0
                      371233.56608179      119.9994938                  0.0              0.0                  0.0

 X0001A                 1021.84880357  4408.9117353674      .40421788465E-3  .41553014143E-3      .21583162305E-4  .21583162305E-4
                      -4288.860887567      -76.5987609      .96297456672E-4       13.3998891      -.9160178582191       -0.9160179

            TERRA                 0.0              0.0      -.4042178847E-3  .41553014143E-3                  0.0
                                  0.0              0.0      -.9629745667E-4     -166.6001109                  0.0

 X0001A                 1021.84880357  4408.9117353674      -.4276395630914  .42766103139609      -209.3024461631  91446.978887385
                      -4288.860887567      -76.5987609      -.0042850733702     -179.4258988      919.23264660774        0.0000000

            X0002A    428661.41189494  428661.41191168      .42763956309137  .42766103139609      91656.281333548
                      -3.787517324169       -0.0005062      .00428507337024        0.5741012      -919.2326466077

 X0001B               -4225.186883716  4408.9117353677      .21010879914998  .42766103139609      -209.3024461631  91446.978887384
                      1259.4834210654      163.4012391      .37248926198553       60.5741012      919.23264660781        0.0000000

            X0002B    -214333.9860337  428661.41191168        -.21010879915  .42766103139609      91656.281333548
                      -371229.7785645     -120.0005062      -.3724892619855     -119.4258988      -919.2326466078

 X0001C               3203.3380801459  4408.9117353679       .2175307639414  .42766103139609      -209.3024461631  91446.978887384
                      3029.3774665023       43.4012391      -.3682041886153      -59.4258988      919.23264660784        0.0000000

            X0002C    -214327.4258613  428661.41191168      -.2175307639414  .42766103139609      91656.281333548
                      371233.56608179      119.9994938      .36820418861529      120.5741012      -919.2326466078

 X0002C               -214327.4258613  428661.41191168      -.0349884152482  .04040038626496       .2040239012947   .2040239012947
                      371233.56608179      119.9994938      -.0201990596013     -150.0018562      -8659.043306654    -8659.0433067

            TERRA                 0.0              0.0      .03498841524818  .04040038626496                  0.0
                                  0.0              0.0      .02019905960134       29.9981438                  0.0

 X0002A               428661.41189494  428661.41191168      .13088767727E-5  .04040038626496      .20402390129475  .20402390129475
                      -3.787517324169       -0.0005062      .04040038624376       89.9981438      -8659.043306654    -8659.0433067

            TERRA                 0.0              0.0      -.1308876773E-5  .04040038626496                  0.0
                                  0.0              0.0      -.0404003862438      -90.0018562                  0.0

 X0001C               3203.3380801459  4408.9117353679      -.2855049861E-3  .41553014143E-3      .21583162305E-4  .21583162305E-4
                      3029.3774665023       43.4012391      .30191422844E-3      133.3998891      -.9160178582193       -0.9160179

            TERRA                 0.0              0.0      .28550498613E-3  .41553014143E-3                  0.0
                                  0.0              0.0      -.3019142284E-3      -46.6001109                  0.0

 X0001A                 1021.84880357  4408.9117353674      .80581801576E-3  .08061220524526      173.27034209562  .40614547715649
                      -4288.860887567      -76.5987609      -.0806081775742      -89.4272488      39.456664220911   -17237.3494144

            X0002A    428661.41189494  428661.41191168      -.8058180158E-3  .08061220524526      -172.8641966185
                      -3.787517324169       -0.0005062      .08060817757417       90.5727512      -17276.80607859

 X0001B               -4225.186883716  4408.9117353677      -.0702116385399  .08061220524526      173.27034209563  .40614547715759
                      1259.4834210654      163.4012391      .03960622991461      150.5727512      39.456664220908   -17237.3494144

            X0002B    -214333.9860337  428661.41191168      .07021163853988  .08061220524526      -172.8641966185
                      -371229.7785645     -120.0005062      -.0396062299146      -29.4272488      -17276.80607859

 X0001C               3203.3380801459  4408.9117353679      .06940582052412  .08061220524526      173.27034209564  .40614547715565
                      3029.3774665023       43.4012391      .04100194765957       30.5727512      39.456664220916   -17237.3494144

            X0002C    -214327.4258613  428661.41191168      -.0694058205241  .08061220524526      -172.8641966185
                      371233.56608179      119.9994938      -.0410019476596     -149.4272488      -17276.80607859

 LN1A                 1021.8488031436  4408.9117353511      1.2033688993678  1.2369824366959      .65112729176675  .64135619980958
                      -4288.860887652      -76.5987609      .28640677493464       13.3875579      -2726.873113047    -2726.8731130

            VFF2A     1023.2222549586  4420.6542323787      -.1023222256E-5  .44206542487E-5      -.0097710919572
                       -4300.60461554      -76.6167219       .4300604632E-5      103.3832781      -.566183699E-11

 LN1B                 -4225.186883576  4408.9117353514      -.3536489067746   1.236982436696      .65112729170734  .64135619977621
                      1259.4834214771      163.4012391      -1.185351424444     -106.6124421      -2726.873113048    -2726.8731130

            VFF2B      -4236.04397617   4420.654232379      .42360439755E-5  .44206542369E-5      -.0097710919311
                      1264.1658412586      163.3832781      -.1264165859E-5      -16.6167221      -.389867625E-10

 LN1C                 3203.3380804326  4408.9117353515      -.8497199925934   1.236982436696      .65112729173688  .64135619981752
                      3029.3774661754       43.4012391       .8989446495094      133.3875579      -2726.873113048    -2726.8731130

            VFF2C     3212.8217212114  4420.6542323792      -.3212821721E-5  .44206542316E-5      -.0097710919194
                      3036.4387742821       43.3832781      -.3036438774E-5     -136.6167219      -.958554618E-13
     Total network loss  P-loss  by summing injections =   2.747042294880E+05

Output for steady-state phasor switch currents.
      Node-K    Node-M            I-real            I-imag            I-magn          Degrees        Power            Reactive
      LN1A      COMPA        -7.76939270E-01   -2.01610309E-01    8.02671381E-01    -165.4530    3.53820525E+01    1.76909985E+03
      LN1B      COMPB         2.13870768E-01    7.73654284E-01    8.02671574E-01      74.5469    3.53803904E+01    1.76910031E+03
      LN1C      COMPC         5.63068575E-01   -5.72044127E-01    8.02670981E-01     -45.4530    3.53807104E+01    1.76909899E+03
      VFF2A     RSNNHA        1.02322224E-06   -4.30060463E-06    4.42065424E-06     -76.6167    9.77109194E-03    3.88547736E-11
      VFF2B     RSNNHB       -4.23604397E-06    1.26416588E-06    4.42065424E-06     163.3833    9.77109194E-03    8.38494293E-11
      VFF2C     RSNNHC        3.21282171E-06    3.03643877E-06    4.42065422E-06      43.3833    9.77109189E-03   -7.18962146E-12
      VFF2A     SE2A              Open              Open              Open             Open          Open              Open
      VFF2B     SE2B              Open              Open              Open             Open          Open              Open
      VFF2C     SE2C              Open              Open              Open             Open          Open              Open
      X0001B    XX0003            Open              Open              Open             Open          Open              Open
      X0001C    XX0004            Open              Open              Open             Open          Open              Open
      XX0005    X0002A            Open              Open              Open             Open          Open              Open
      XX0003    X0002B            Open              Open              Open             Open          Open              Open
      XX0004    X0002C            Open              Open              Open             Open          Open              Open
      X0001A    XX0005            Open              Open              Open             Open          Open              Open
      VFUENA    IFUENA        4.27256537E-01    1.25293633E-01    4.45248968E-01      16.3439    9.15740442E+04   -2.68542286E+04
      VFUENB    IFUENB       -1.05120799E-01   -4.32661832E-01    4.45248968E-01    -103.6561    9.15740442E+04   -2.68542286E+04
      VFUENC    IFUENC       -3.22135738E-01    3.07368198E-01    4.45248968E-01     136.3439    9.15740442E+04   -2.68542286E+04
      COMPA     RSNSHA       -7.76939270E-01   -2.01610309E-01    8.02671381E-01    -165.4530    3.53820525E+01    1.76909985E+03
      COMPB     RSNSHB        2.13870768E-01    7.73654284E-01    8.02671574E-01      74.5469    3.53803904E+01    1.76910031E+03
      COMPC     RSNSHC        5.63068575E-01   -5.72044127E-01    8.02670981E-01     -45.4530    3.53807104E+01    1.76909899E+03

Solution at nodes with known voltage.   Nodes that are shorted together by switches are shown as a group of names, with the printed
result applying to the composite group.   The entry "MVA" is  SQRT( P**2 + Q**2 )  in units of power,  while  "P.F."  is the
associated power factor.
              Node                Source  node  voltage             Injected  source  current              Injected  source  power
              name         Rectangular            Polar          Rectangular            Polar            P  and  Q    MVA and P.F.

               VFUENA
              IFUENA       428660.705       428660.705      .42725653715246  .44524896757698      91574.044215815  95430.368171035
                                  0.0              0.0      .12529363347296       16.3438558      -26854.22862827        0.9595902

               VFUENB
              IFUENB     -214330.3525       428660.705      -.1051207990766  .44524896757101      91574.044215943  95430.368169755
                      -371231.0601341     -120.0000000      -.4326618318324     -103.6561442      -26854.22862328        0.9595902

               VFUENC
              IFUENC     -214330.3525       428660.705      -.3221357380864  .44524896757076      91574.044215008  95430.368169701
                      371231.06013415      120.0000000      .30736819837189      136.3438558      -26854.22862628        0.9595902

  +++  Node  "COMPC "  has no connected linear branches.  Add (to ground) the conductance  G = 1.00000000E-18  mhos.
  +++  Node  "COMPB "  has no connected linear branches.  Add (to ground) the conductance  G = 1.00000000E-18  mhos.
  +++  Node  "COMPA "  has no connected linear branches.  Add (to ground) the conductance  G = 1.00000000E-18  mhos.
Card of names for time-step loop output.          |  LN1A  LN1B  LN1C  COMPA COMPB COMPC SB1A  SB1B  SB1C  SE2A  SE2B  SE2C  VFF2A
Card of names for time-step loop output.          |  VFF2B VFF2C IFUENAIFUENBIFUENC
Card of names for time-step loop output.          |-5VFF2A VFF2B VFF2B VFF2C VFF2C VFF2A LN1A  LN1B  LN1B  LN1C  LN1C  LN1A
Card of names for time-step loop output.          |-5SB1A  SB1B  SB1B  SB1C  SB1C  SB1A
Blank card ending requests for output variables.  |BLANK OUTPUT

Column headings for the  55   EMTP output variables follow.  These are divided among the 5 possible classes as follows ....
  First  27     output variables are electric-network voltage differences (upper voltage minus lower voltage);
  Next   6     output variables are branch currents (flowing from the upper node to the lower node);
  Next   22     output variables belong to MODELS (with "MODELS" an internally-added upper name of pair).
   Step      Time      LN1A       LN1B       LN1C       COMPA      COMPB      COMPC      SB1A       SB1B       SB1C       SE2A
 

                       SE2B       SE2C       VFF2A      VFF2B      VFF2C      IFUENA     IFUENB     IFUENC     VFF2A      VFF2B
                                                                                                               VFF2B      VFF2C

                       VFF2C      LN1A       LN1B       LN1C       SB1A       SB1B       SB1C       VFUENA     VFUENB     VFUENC
                       VFF2A      LN1B       LN1C       LN1A       SB1B       SB1C       SB1A       IFUENA     IFUENB     IFUENC

                       COMPA      COMPB      COMPC      MODELS     MODELS     MODELS     MODELS     MODELS     MODELS     MODELS
                       RSNSHA     RSNSHB     RSNSHC     ANVOL      LONG       R0F        R1F        X0F        X1F        RDIVX

                       MODELS     MODELS     MODELS     MODELS     MODELS     MODELS     MODELS     MODELS     MODELS     MODELS
                       RINSER     CLOSE1     RPPOS      RPCERO     LPPOS      LPCERO     CPPOS      CPCERO     XP         CR

                       MODELS     MODELS     MODELS     MODELS     MODELS
                       SIMET      ENC1       ENC2       ENC1AS     ENC2AS
 ***      Phasor I(0) = -7.7693927E-01                     Switch  "LN1A  "  to  "COMPA "  closed in the steady-state.
 ***      Phasor I(0) =  2.1387077E-01                     Switch  "LN1B  "  to  "COMPB "  closed in the steady-state.
 ***      Phasor I(0) =  5.6306858E-01                     Switch  "LN1C  "  to  "COMPC "  closed in the steady-state.
 ***      Phasor I(0) =  1.0232222E-06                     Switch  "VFF2A "  to  "RSNNHA"  closed in the steady-state.
 ***      Phasor I(0) = -4.2360440E-06                     Switch  "VFF2B "  to  "RSNNHB"  closed in the steady-state.
 ***      Phasor I(0) =  3.2128217E-06                     Switch  "VFF2C "  to  "RSNNHC"  closed in the steady-state.
 ***      Phasor I(0) =  4.2725654E-01                     Switch  "VFUENA"  to  "IFUENA"  closed in the steady-state.
 ***      Phasor I(0) = -1.0512080E-01                     Switch  "VFUENB"  to  "IFUENB"  closed in the steady-state.
 ***      Phasor I(0) = -3.2213574E-01                     Switch  "VFUENC"  to  "IFUENC"  closed in the steady-state.
 ***      Phasor I(0) = -7.7693927E-01                     Switch  "COMPA "  to  "RSNSHA"  closed in the steady-state.
 ***      Phasor I(0) =  2.1387077E-01                     Switch  "COMPB "  to  "RSNSHB"  closed in the steady-state.
 ***      Phasor I(0) =  5.6306858E-01                     Switch  "COMPC "  to  "RSNSHC"  closed in the steady-state.
      0       0.0   1021.8488 -4225.1869 3203.33808  1021.8488 -4225.1869 3203.33808 428661.412 -214333.99 -214327.43        0.0
                          0.0        0.0 1023.22225  -4236.044 3212.82172 428660.705 -214330.35 -214330.35 5259.26623 -7448.8657
                   2189.59947 5247.03569  -7428.525 2181.48928 642995.398 -6.5601722 -642988.84 .427256537  -.1051208 -.32213574
                   -.77693927 .213870768 .563068575        0.0   89.05925    .696068    .870259   6.886248   8.609533    .101081
                         400.    .059024    .025093    .354984    .213086    .836537    .010013     .00767   5491.719   109.8344
                          0.0        0.0        0.0        1.0        0.0
    500     .5E-3  1680.19549 -4370.1954 2689.99991 1680.19549 -4370.1954 2689.99991 423384.467 -153622.05 -269762.42        0.0
                          0.0        0.0 1683.38667   -4381.65 2698.26335  423383.18 -153618.26 -269764.92 6065.03669 -7079.9134
                   1014.87668 6050.39089 -7060.1953 1009.80442 577006.512 116140.377 -693146.89  .40238864 -.03614069 -.36624795
                   -.73583528 .090211597 .645623907        0.0   89.05925    .696068    .870259   6.886248   8.609533    .101081
                         400.    .059024    .025093    .354984    .213086    .836537    .010013     .00767   5491.719   109.8344
                          0.0        0.0        0.0        1.0        0.0
   1000     .1E-2  2297.16681 -4407.5935 2110.42665 2297.16681 -4407.5935 2110.42665 407682.386 -89127.417 -318554.97        0.0
                          0.0        0.0 2302.10216 -4419.3661 2117.26397 407680.557 -89123.572 -318556.98 6721.46829 -6536.6301
                   -184.83819 6704.76027 -6518.0201 -186.74015 496809.802 229427.552 -726237.35 .367618622 .033726303 -.40134493
                   -.67661215  -.0356693 .712281907        0.0   89.05925    .696068    .870259   6.886248   8.609533    .101081
                         400.    .059024    .025093    .354984    .213086    .836537    .010013     .00767   5491.719   109.8344
                          0.0        0.0        0.0        1.0        0.0
   1500     .0015  2857.57601 -4336.4628 1478.88682 2857.57601 -4336.4628 1478.88682 381941.831 -22438.185 -359503.65        0.0
                          0.0        0.0 2864.13137 -4348.2623 1484.13096 381939.485 -22434.368 -359505.12  7212.3937 -5832.3933
                   -1380.0004 7194.03883 -5815.3496 -1378.6892 404380.016  337065.46 -741445.48 .323800093 .102761103  -.4265612
                   -.60072923 -.16067146 .761400684        0.0   89.05925    .696068    .870259   6.886248   8.609533    .101081
                         400.    .059024    .025093    .354984    .213086    .836537    .010013     .00767   5491.719   109.8344
                          0.0        0.0        0.0        1.0        0.0
   2000      .002  3347.62298 -4158.5545 810.931483 3347.62298 -4158.5545 810.931483   346796.6 44803.5487 -391600.15        0.0
                          0.0        0.0 3355.63606 -4170.0898 814.453756 346793.795 44807.2448 -391601.04 7525.72588 -4984.5436
                   -2541.1823 7506.17745 -4969.4859 -2536.6915 301993.051 436403.697 -738396.75 .272006059 .169266826 -.44127289
                   -.51005386 -.28171774 .791771594        0.0   89.05925    .696068    .870259   6.886248   8.609533    .101081
                         400.    .059024    .025093    .354984    .213086    .836537    .010013     .00767   5491.719   109.8344
                          0.0        0.0        0.0        1.0        0.0
   2500     .0025  3755.23924 -3878.2481 123.008874 3755.23924 -3878.2481 123.008874  303112.07 110942.078 -414054.15        0.0
                          0.0        0.0 3764.51448 -3889.2362  124.72168 303108.891 110945.554 -414054.45 7653.75065 -4013.9578
                   -3639.7928 7633.48736  -4001.257 -3632.2304 192169.992 524996.227 -717166.22 .213514295 .231604655 -.44511895
                   -.40681956 -.39582677 .802646284        0.0   89.05925    .696068    .870259   6.886248   8.609533    .101081
                         400.    .059024    .025093    .354984    .213086    .836537    .010013     .00767   5491.719   109.8344
                          0.0        0.0        0.0        1.0        0.0
   3000      .003  4070.38904 -3502.4464 -567.94262 4070.38904 -3502.4464 -567.94262 251963.918 174348.845 -426312.76        0.0
                          0.0        0.0 4080.69763 -3512.6164 -568.08125 251960.441 174352.016 -426312.46   7593.314 -2944.5351
                   -4648.7789 7572.83546 -2934.5038 -4638.3317  77615.073 600661.608 -678276.68 .149766436 .288238938 -.43800537
                   -.29356772 -.50018966 .793757143        0.0   89.05925    .696068    .870259   6.886248   8.609533    .101081
                         400.    .059024    .025093    .354984    .213086    .836537    .010013     .00767   5491.719   109.8344
                          0.0        0.0        0.0        1.0        0.0
   3500     .0035  4285.31307 -3040.4032 -1244.9099 4285.31307 -3040.4032 -1244.9099 194611.584 233462.561 -428074.15        0.0
                          0.0        0.0 4296.39893 -3049.5036 -1246.8953 194607.888 233465.353 -428073.24 7345.90257 -1802.6084
                   -5543.2942 7325.71628 -1795.4933 -5530.2229 -38850.977 661536.706 -622685.73 .082330106 .337776185 -.42010629
                   -.17308753 -.59223596 .765323261        0.0   89.05925    .696068    .870259   6.886248   8.609533    .101081
                         400.    .059024    .025093    .354984    .213086    .836537    .010013     .00767   5491.719   109.8344
                          0.0        0.0        0.0        1.0        0.0
   4000      .004  4394.71844 -2503.4952 -1891.2233 4394.71844 -2503.4952 -1891.2233 132467.265 286827.655 -419294.92        0.0
                          0.0        0.0 4406.31173 -2511.3034 -1895.0083 132463.443 286829.997 -419293.44 6917.61518 -616.29517
                     -6301.32  6898.2136 -612.27188 -6285.9417 -154360.39 706122.575 -551762.18 .012865883 .378996589 -.39186247
                   -.04834517 -.66969943 .718044374        0.0   89.05925    .696068    .870259   6.886248   8.609533    .101081
                         400.    .059024    .025093    .354984    .213086    .836537    .010013     .00767   5491.719   109.8344
                          0.0        0.0        0.0        1.0        0.0
   4500     .0045  4395.91078 -1904.9425 -2490.9683 4395.91078 -1904.9425 -2490.9683 67061.1591 333130.102 -400191.26        0.0
                          0.0        0.0  4407.7246 -1911.2657 -2496.4589 67057.3081 333131.936 -400189.24 6318.99026  585.19328
                   -6904.1835 6300.85328 586.025775 -6886.8791 -266068.94 733321.363 -467252.42  -.0569146 .410884565 -.35396997
                   .077587439 -.73067256 .653084894        0.0   89.05925    .696068    .870259   6.886248   8.609533    .101081
                         400.    .059024    .025093    .354984    .213086    .836537    .010013     .00767   5491.719   109.8344
                          0.0        0.0        0.0        1.0        0.0
   5000      .005  4288.86135 -1259.4839 -3029.3775 4288.86135 -1259.4839 -3029.3775 3.78738821 371229.779 -371233.57        0.0
                          0.0        0.0  4300.6047 -1264.1662 -3036.4385 -.45661E-7  371231.06 -371231.06 5564.77088 1772.27234
                   -7337.0432 5548.34525 1769.89355 -7318.2388 -371225.99 742463.345 -371237.35  -.1252934 .432655074 -.30736168
                   .201609947 -.77365435 .572044176        0.0   89.05925    .696068    .870259   6.886248   8.609533    .101081
                         400.    .059024    .025093    .354984    .213086    .836537    .010013     .00767   5491.719   109.8344
                          0.0        0.0        0.0        1.0        0.0
   5500     .0055  4076.20619 -583.01275 -3493.1934 4076.20619 -583.01275 -3493.1934 -67053.677 400188.546 -333134.87        0.0
                          0.0        0.0  4087.5904 -585.93911 -3501.6513 -67057.308 400189.244 -333131.94 4673.52951 2915.71219
                   -7589.2417 4659.21894  2910.1807 -7569.3996 -467242.22 733323.415 -266081.19 -.19058732  .44377231 -.25318499
                   .320668083 -.79758605 .476918309        0.0   89.05925    .696068    .870259   6.886248   8.609533    .101081
                         400.    .059024    .025093    .354984    .213086    .836537    .010013     .00767   5491.719   109.8344
                          0.0        0.0        0.0        1.0        0.0
   6000      .006  3763.18121 107.814178 -3870.9954 3763.18121 107.814178 -3870.9954 -132460.06 419293.344 -286833.29        0.0
                          0.0        0.0 3773.92575 106.715902 -3880.6417 -132463.44  419293.44   -286830. 3667.20985 3987.35756
                   -7654.5674 3655.36703 3978.80957 -7634.1766  -551753.4 706126.629 -154373.23 -.25118843 .443962439 -.19277401
                   .431829864 -.80187857 .370048775        0.0   89.05925    .696068    .870259   6.886248   8.609533    .101081
                         400.    .059024    .025093    .354984    .213086    .836537    .010013     .00767   5491.719   109.8344
                          0.0        0.0        0.0        1.0        0.0
   6500     .0065  3357.49427 795.986335 -4153.4806 3357.49427 795.986335 -4153.4806 -194604.83 428073.748 -233468.91        0.0
                          0.0        0.0 3367.33406 796.743455 -4164.0775 -194607.89  428073.24 -233465.35 2570.59061 4960.82097
                   -7531.4116 2561.50794 4949.46694 -7510.9749 -622678.58 661542.662 -38864.081 -.30560434 .433220687 -.12761635
                   .532359082 -.78642622 .254067363        0.0   89.05925    .696068    .870259   6.886248   8.609533    .101081
                         400.    .059024    .025093    .354984    .213086    .836537    .010013     .00767   5491.719   109.8344
                          0.0        0.0        0.0        1.0        0.0
   7000      .007  2869.13389 1464.55901 -4333.6929 2869.13389 1464.55901 -4333.6929 -251957.79 426313.556 -174355.76        0.0
                          0.0        0.0  2877.8277 1467.15242 -4344.9801 -251960.44 426312.457 -174352.02 1410.67528 5812.13254
                   -7222.8078 1404.57488 5798.25191 -7202.8268 -678271.35 600669.319 77602.0296 -.35249534 .411811642  -.0593163
                   .619779375 -.75160944 .131829614        0.0   89.05925    .696068    .870259   6.886248   8.609533    .101081
                         400.    .059024    .025093    .354984    .213086    .836537    .010013     .00767   5491.719   109.8344
                          0.0        0.0        0.0        1.0        0.0
   7500     .0075  2310.12708 2097.06887 -4407.1959 2310.12708 2097.06887 -4407.1959 -303106.71 414056.108  -110949.4        0.0
                          0.0        0.0 2317.45998 2101.43507 -4418.8951 -303108.89 414054.446 -110945.55  216.02491 6520.33012
                    -6736.355 213.058202 6504.26482  -6717.323 -717162.82 525005.504 192157.315 -.39070641 .380262264 .010444144
                   .691938787 -.69828551 .006346267        0.0   89.05925    .696068    .870259   6.886248   8.609533    .101081
                         400.    .059024    .025093    .354984    .213086    .836537    .010013     .00767   5491.719   109.8344
                          0.0        0.0        0.0        1.0        0.0
   8000      .008  1694.23685 2677.94217  -4372.179 1694.23685 2677.94217  -4372.179 -346792.14 391603.225 -44811.086        0.0
                          0.0        0.0 1700.02837  2683.9736  -4384.002  -346793.8  391601.04 -44807.245 -983.94523 7067.97556
                   -6084.0303 -983.70532 7050.12119 -6066.4159 -738395.36 436414.312 301981.053 -.41929754 .339349851 .079947694
                   .747060686 -.62776765 -.11929304        0.0   89.05925    .696068    .870259   6.886248   8.609533    .101081
                         400.    .059024    .025093    .354984    .213086    .836537    .010013     .00767   5491.719   109.8344
                          0.0        0.0        0.0        1.0        0.0
   8500     .0085   1036.6282   3192.876 -4229.5042  1036.6282   3192.876 -4229.5042  -381938.4 359507.773 22430.6226        0.0
                          0.0        0.0 1040.73623 3200.42389 -4241.1601 -381939.48 359505.117 22434.3679 -2159.6877   7441.584
                   -5281.8963 -2156.2478 7422.38019 -5266.1324 -741446.17  337077.15 404369.018 -.43756381 .290081328 .147482483
                   .783787307 -.54179189 -.24199541        0.0   89.05925    .696068    .870259   6.886248   8.609533    .101081
                         400.    .059024    .025093    .354984    .213086    .836537    .010013     .00767   5491.719   109.8344
                          0.0        0.0        0.0        1.0        0.0
   9000      .009  353.495087 3629.19024 -3982.6853 353.495087 3629.19024 -3982.6853 -407680.06 318560.044  89120.014        0.0
                          0.0        0.0 355.818005 3638.06898  -3993.887 -407680.56 318556.985  89123.572  -3282.251 7631.95596
                    -4349.705 -3275.6952 7611.87557 -4336.1804  -726240.1  229440.03 496800.072 -.44505557 .233669924  .21138565
                   .801214333 -.44247529 -.35873916        0.0   89.05925    .696068    .870259   6.886248   8.609533    .101081
                         400.    .059024    .025093    .354984    .213086    .836537    .010013     .00767   5491.719   109.8344
                          0.0        0.0        0.0        1.0        0.0
   9500     .0095  -338.34213 3976.14172 -3637.7996 -338.34213 3976.14172 -3637.7996 -423383.28  269768.31 153614.974        0.0
                          0.0        0.0  -337.8616 3986.13272 -3648.2711 -423383.18 269764.922 153618.258 -4323.9943 7634.40385
                   -3310.4095 -4314.4839 7613.94132 -3299.4575 -693151.59 116153.335 576998.259 -.44158899 .171504995    .270084
                    .79891295 -.33226363 -.46664926        0.0   89.05925    .696068    .870259   6.886248   8.609533    .101081
                         400.    .059024    .025093    .354984    .213086    .836537    .010013     .00767   5491.719   109.8344
                          0.0        0.0        0.0        1.0        0.0
  10000       .01  -1021.8488 4225.18771 -3203.3389 -1021.8488 4225.18771 -3203.3389 -428661.41 214333.986 214327.426        0.0
                          0.0        0.0 -1023.2223 4236.04478 -3212.8225 -428660.71 214330.353 214330.352 -5259.2671 7448.86724
                   -2189.6001 -5247.0366 7428.52658   -2181.49  -642995.4 6.56007022 642988.837 -.42724905 .105117053 .322131995
                   .776939596 -.21387067 -.56306926        0.0   89.05925    .696068    .870259   6.886248   8.609533    .101081
                         400.    .059024    .025093    .354984    .213086    .836537    .010013     .00767   5491.719   109.8344
                          0.0        0.0        0.0        1.0        0.0
  10500     .0105  -1680.1941 4370.19549 -2690.0014 -1680.1941 4370.19549 -2690.0014 -423384.47 153622.047 269762.424        0.0
                          0.0        0.0 -1683.3873 4381.65114 -2698.2638 -423383.18 153618.258 269764.922 -6065.0385 7079.91496
                   -1014.8765 -6050.3896 7060.19687 -1009.8073 -577006.52 -116140.38 693146.895 -.40238853 .036140636 .366247891
                   .735835543  -.0902116 -.64562439        0.0   89.05925    .696068    .870259   6.886248   8.609533    .101081
                         400.    .059024    .025093    .354984    .213086    .836537    .010013     .00767   5491.719   109.8344
                          0.0        0.0        0.0        1.0        0.0
  11000      .011  -2297.1671 4407.59441 -2110.4273 -2297.1671 4407.59441 -2110.4273  -407682.4 89127.4232 318554.975        0.0
                          0.0        0.0 -2302.1023 4419.36701 -2117.2647 -407680.56  89123.572 318556.985 -6721.4694 6536.63168
                    184.83767 -6704.7615 6518.02168 186.739873 -496809.82 -229427.55 726237.374  -.3676199 -.03372566 .401345566
                   .676612723 .035669735   -.712282        0.0   89.05925    .696068    .870259   6.886248   8.609533    .101081
                         400.    .059024    .025093    .354984    .213086    .836537    .010013     .00767   5491.719   109.8344
                          0.0        0.0        0.0        1.0        0.0
  11500     .0115  -2857.5764 4336.46378 -1478.8874 -2857.5764 4336.46378 -1478.8874 -381941.83 22438.1866 359503.646        0.0
                          0.0        0.0 -2864.1313 4348.26304 -1484.1318 -381939.48 22434.3679 359505.117 -7212.3943 5832.39483
                   1379.99947 -7194.0402 5815.35117 1378.68902 -404380.02 -337065.46 741445.479 -.32379952 -.10276139 .426560911
                   .600729121 .160671572 -.76140092        0.0   89.05925    .696068    .870259   6.886248   8.609533    .101081
                         400.    .059024    .025093    .354984    .213086    .836537    .010013     .00767   5491.719   109.8344
                          0.0        0.0        0.0        1.0        0.0
  12000      .012   -3347.623  4158.5552 -810.93221  -3347.623  4158.5552 -810.93221 -346796.59 -44803.552 391600.145        0.0
                          0.0        0.0 -3355.6367 4170.09087  -814.4542  -346793.8 -44807.245  391601.04 -7525.7275 4984.54507
                   2541.18247 -7506.1782 4969.48741 2536.69078 -301993.04  -436403.7 738396.738   -.272006 -.16926685 .441272856
                   .510054048 .281717722 -.79177177        0.0   89.05925    .696068    .870259   6.886248   8.609533    .101081
                         400.    .059024    .025093    .354984    .213086    .836537    .010013     .00767   5491.719   109.8344
                          0.0        0.0        0.0        1.0        0.0
  12500     .0125  -3755.2398  3878.2491 -123.00928 -3755.2398  3878.2491 -123.00928 -303112.07 -110942.08 414054.148        0.0
                          0.0        0.0  -3764.515 3889.23715 -124.72211 -303108.89 -110945.55 414054.446 -7653.7522 4013.95926
                   3639.79293 -7633.4889 4001.25838 3632.23054 -192169.99 -524996.23 717166.218  -.2135146  -.2316045 .445119104
                   .406819482 .395826679  -.8026465        0.0   89.05925    .696068    .870259   6.886248   8.609533    .101081
                         400.    .059024    .025093    .354984    .213086    .836537    .010013     .00767   5491.719   109.8344
                          0.0        0.0        0.0        1.0        0.0
  13000      .013  -4070.3899 3502.44748 567.942406 -4070.3899 3502.44748 567.942406 -251963.92 -174348.84 426312.764        0.0
                          0.0        0.0  -4080.698 3512.61721 568.080767 -251960.44 -174352.02 426312.457 -7593.3152 2944.53644
                   4648.77874 -7572.8374 2934.50507 4638.33229 -77615.075 -600661.61 678276.683 -.14976592  -.2882392 .438005117
                    .29356807 .500189368 -.79375744        0.0   89.05925    .696068    .870259   6.886248   8.609533    .101081
                         400.    .059024    .025093    .354984    .213086    .836537    .010013     .00767   5491.719   109.8344
                          0.0        0.0        0.0        1.0        0.0
  13500     .0135  -4285.3145 3040.40444 1244.91009 -4285.3145 3040.40444 1244.91009 -194611.58 -233462.56 428074.144        0.0
                          0.0        0.0 -4296.4011 3049.50522 1246.89586 -194607.89 -233465.35  428073.24 -7345.9063 1802.60935
                   5543.29694  -7325.719 1795.49435 5530.22463 38850.9783 -661536.71 622685.727 -.08232959 -.33777645 .420106033
                   .173087418 .592235697 -.76532334        0.0   89.05925    .696068    .870259   6.886248   8.609533    .101081
                         400.    .059024    .025093    .354984    .213086    .836537    .010013     .00767   5491.719   109.8344
                          0.0        0.0        0.0        1.0        0.0
  14000      .014  -4394.7192 2503.49596 1891.22321 -4394.7192 2503.49596 1891.22321 -132467.26 -286827.66 419294.919        0.0
                          0.0        0.0 -4406.3126 2511.30432 1895.00829 -132463.44   -286830.  419293.44 -6917.6169 616.296037
                    6301.3209 -6898.2151 612.272752 6285.94238 154360.394 -706122.57 551762.181 -.01286592 -.37899657 .391862488
                    .04834533 .669699498  -.7180446        0.0   89.05925    .696068    .870259   6.886248   8.609533    .101081
                         400.    .059024    .025093    .354984    .213086    .836537    .010013     .00767   5491.719   109.8344
                          0.0        0.0        0.0        1.0        0.0
  14500     .0145  -4395.9122 1904.94358 2490.96861 -4395.9122 1904.94358 2490.96861  -67061.16  -333130.1 400191.261        0.0
                          0.0        0.0 -4407.7259 1911.26666 2496.45921 -67057.308 -333131.94 400189.244 -6318.9925 -585.19255
                   6904.18508 -6300.8558 -586.02503 6886.88079 266068.942 -733321.36 467252.421 .056914618 -.41088457 .353969957
                   -.07758737 .730672684 -.65308509        0.0   89.05925    .696068    .870259   6.886248   8.609533    .101081
                         400.    .059024    .025093    .354984    .213086    .836537    .010013     .00767   5491.719   109.8344
                          0.0        0.0        0.0        1.0        0.0
  % % % % % %   Suspended simulation;  plot data space exhausted;  SPY SPACE is required.   LIMBUF =  840000.
  % % % % % %   Suspended simulation;  plot data space exhausted;  SPY SPACE is required.   LIMBUF =  840000.
  +++  Time-sharing disabled.   Send  user-keyed interrupt to silence alarm.
   Current values.  INDBUF  INDBEG  LIMBUF  MFLUSH  NUMDCD  KCARD1  KCARD2
                    839994      50  840000    1000     230       1     231
Plot timespan now in memory (in sec) = 0.00000000E+00   1.49990000E-02
   ++++  Begin plot-data copy from memory to disk.   MFLUSH, INDBUF, N4, Tbeg,  Tend = 1001  839994       1  -1.00000E+00
1.00000E+19
  15000      .015  -4288.8625 1259.48479 3029.37775 -4288.8625 1259.48479 3029.37775   -3.78693 -371229.78 371233.566        0.0
                          0.0        0.0 -4300.6061 1264.16719 3036.43896 -.61533E-6 -371231.06  371231.06 -5564.7733 -1772.2718
                   7337.04511 -5548.3473  -1769.893 7318.24029 371225.992 -742463.34 371237.353 .125293745 -.43265525 .307361503
                   -.20161006 .773654349 -.57204474        0.0   89.05925    .696068    .870259   6.886248   8.609533    .101081
                         400.    .059024    .025093    .354984    .213086    .836537    .010013     .00767   5491.719   109.8344
                          0.0        0.0        0.0        1.0        0.0
  15500     .0155  -4076.2071 583.013408 3493.19369 -4076.2071 583.013408 3493.19369 67053.6784 -400188.55 333134.868        0.0
                          0.0        0.0 -4087.5916 585.939878 3501.65168 67057.3081 -400189.24 333131.936 -4673.5314 -2915.7118
                   7589.24323 -4659.2205 -2910.1803  7569.4008 467242.225 -733323.42  266081.19 .190587418 -.44377236  .25318494
                   -.32066764 .797586116 -.47691848        0.0   89.05925    .696068    .870259   6.886248   8.609533    .101081
                         400.    .059024    .025093    .354984    .213086    .836537    .010013     .00767   5491.719   109.8344
                          0.0        0.0        0.0        1.0        0.0
  16000      .016  -3763.1824 -107.81345 3870.99587 -3763.1824 -107.81345 3870.99587 132460.058 -419293.34 286833.285        0.0
                          0.0        0.0 -3773.9269 -106.71521 3880.64213 132463.443 -419293.44 286829.997 -3667.2117 -3987.3573
                   7654.56906  -3655.369 -3978.8093  7634.1783 551753.402 -706126.63 154373.227 .251188438 -.44396244 .192774004
                   -.43182985 .801878709 -.37004896        0.0   89.05925    .696068    .870259   6.886248   8.609533    .101081
                         400.    .059024    .025093    .354984    .213086    .836537    .010013     .00767   5491.719   109.8344
                          0.0        0.0        0.0        1.0        0.0
  16500     .0165  -3357.4952 -795.98585 4153.48104 -3357.4952 -795.98585 4153.48104 194604.834 -428073.75 233468.914        0.0
                          0.0        0.0 -3367.3352 -796.74294 4164.07811 194607.888 -428073.24 233465.353 -2570.5922  -4960.821
                   7531.41328 -2561.5093 -4949.4669 7510.97623 622678.582 -661542.66 38864.0805 .305604494 -.43322076 .127616269
                   -.53235903 .786426366 -.25406756        0.0   89.05925    .696068    .870259   6.886248   8.609533    .101081
                         400.    .059024    .025093    .354984    .213086    .836537    .010013     .00767   5491.719   109.8344
                          0.0        0.0        0.0        1.0        0.0
  17000      .017  -2869.1353 -1464.5584 4333.69375 -2869.1353 -1464.5584 4333.69375 251957.792 -426313.56 174355.764        0.0
                          0.0        0.0  -2877.829 -1467.1519  4344.9809 251960.441 -426312.46 174352.016 -1410.6771 -5812.1328
                   7222.80992 -1404.5769 -5798.2522 7202.82905 678271.348 -600669.32 -77602.029 .352495226 -.41181159  .05931636
                   -.61977931 .751609589 -.13182983        0.0   89.05925    .696068    .870259   6.886248   8.609533    .101081
                         400.    .059024    .025093    .354984    .213086    .836537    .010013     .00767   5491.719   109.8344
                          0.0        0.0        0.0        1.0        0.0
  17500     .0175  -2310.1282 -2097.0686 4407.19673 -2310.1282 -2097.0686 4407.19673 303106.713 -414056.11 110949.396        0.0
                          0.0        0.0  -2317.461 -2101.4348 4418.89579 303108.891 -414054.45 110945.554 -216.02623 -6520.3306
                    6736.3568 -213.05961 -6504.2653  6717.3249 717162.821  -525005.5 -192157.32 .390706441 -.38026228 -.01044416
                   -.69193924 .698285681 -.00634644        0.0   89.05925    .696068    .870259   6.886248   8.609533    .101081
                         400.    .059024    .025093    .354984    .213086    .836537    .010013     .00767   5491.719   109.8344
                          0.0        0.0        0.0        1.0        0.0
  18000      .018  -1694.2379  -2677.942 4372.17986 -1694.2379  -2677.942 4372.17986  346792.14 -391603.23 44811.0857        0.0
                          0.0        0.0 -1700.0296 -2683.9733 4384.00286 346793.795 -391601.04 44807.2448 983.943754 -7067.9762
                   6084.03242  983.70405 -7050.1218 6066.41777 738395.366 -436414.31 -301981.05 .419297359 -.33934976  -.0799476
                   -.74706064  .62776779 .119292847        0.0   89.05925    .696068    .870259   6.886248   8.609533    .101081
                         400.    .059024    .025093    .354984    .213086    .836537    .010013     .00767   5491.719   109.8344
                          0.0        0.0        0.0        1.0        0.0
  18500     .0185  -1036.6296 -3192.8757  4229.5053 -1036.6296 -3192.8757  4229.5053 381938.395 -359507.77 -22430.623        0.0
                          0.0        0.0 -1040.7378 -3200.4235 4241.16126 381939.485 -359505.12 -22434.368 2159.68574 -7441.5848
                   5281.89902 2156.24603  -7422.381 5266.13494 741446.168 -337077.15 -404369.02 .437563695 -.29008127 -.14748242
                   -.78378732 .541792056 .241995267        0.0   89.05925    .696068    .870259   6.886248   8.609533    .101081
                         400.    .059024    .025093    .354984    .213086    .836537    .010013     .00767   5491.719   109.8344
                          0.0        0.0        0.0        1.0        0.0
  19000      .019  -353.49623 -3629.1901 3982.68636 -353.49623 -3629.1901 3982.68636 407680.059 -318560.04 -89120.014        0.0
                          0.0        0.0 -355.81909 -3638.0689 3993.88798 407680.557 -318556.98 -89123.572  3282.2498 -7631.9569
                   4349.70707 3275.69391 -7611.8765 4336.18258 726240.103 -229440.03 -496800.07  .44505561 -.23366994 -.21138567
                   -.80121445 .442475491 .358739075        0.0   89.05925    .696068    .870259   6.886248   8.609533    .101081
                         400.    .059024    .025093    .354984    .213086    .836537    .010013     .00767   5491.719   109.8344
                          0.0        0.0        0.0        1.0        0.0
  19500     .0195  338.341298 -3976.1418 3637.80053 338.341298 -3976.1418 3637.80053 423383.286 -269768.31 -153614.98        0.0
                          0.0        0.0 337.860603 -3986.1327 3648.27214  423383.18 -269764.92 -153618.26 4323.99334 -7634.4049
                   3310.41154 4314.48313 -7613.9424 3299.45924 693151.596 -116153.34 -576998.26 .441588911 -.17150495 -.27008396
                   -.79891308  .33226379 .466649175        0.0   89.05925    .696068    .870259   6.886248   8.609533    .101081
                         400.    .059024    .025093    .354984    .213086    .836537    .010013     .00767   5491.719   109.8344
                          0.0        0.0        0.0        1.0        0.0
  20000       .02  1021.84742 -4225.1877 3203.34024 1021.84742 -4225.1877 3203.34024 428661.411 -214333.99 -214327.43        0.0
                          0.0        0.0 1023.22101 -4236.0448 3212.82377 428660.705 -214330.35 -214330.35 5259.26578 -7448.8685
                   2189.60276 5247.03508 -7428.5279 2181.49282 642995.397 -6.5600409 -642988.84 .427248995 -.10511703 -.32213197
                   -.77693981 .213870829 .563069206        0.0   89.05925    .696068    .870259   6.886248   8.609533    .101081
                         400.    .059024    .025093    .354984    .213086    .836537    .010013     .00767   5491.719   109.8344
                          0.0        0.0        0.0        1.0        0.0
  20500     .0205  1680.19342 -4370.1958 2690.00241 1680.19342 -4370.1958 2690.00241 423384.471 -153622.05 -269762.42        0.0
                          0.0        0.0 1683.38687 -4381.6516 2698.26474  423383.18 -153618.26 -269764.92 6065.03848 -7079.9163
                   1014.87786 6050.38925 -7060.1982   1009.809 577006.519 116140.377  -693146.9 .402388474 -.03614061 -.36624787
                   -.73583574 .090211791 .645624405        0.0   89.05925    .696068    .870259   6.886248   8.609533    .101081
                         400.    .059024    .025093    .354984    .213086    .836537    .010013     .00767   5491.719   109.8344
                          0.0        0.0        0.0        1.0        0.0
  21000      .021  2297.16655 -4407.5948 2110.42828 2297.16655 -4407.5948 2110.42828 407682.399 -89127.423 -318554.98        0.0
                          0.0        0.0 2302.10176 -4419.3674 2117.26568 407680.557 -89123.572 -318556.98  6721.4692 -6536.6331
                   -184.83608 6704.76137 -6518.0231 -186.73827 496809.822 229427.552 -726237.37 .367619958 .033725636 -.40134559
                   -.67661295 -.03566955 .712282047        0.0   89.05925    .696068    .870259   6.886248   8.609533    .101081
[...]
                         400.    .059024    .025093    .354984    .213086    .836537    .010013     .00767   5491.719   109.8344
                          0.0        0.0        0.0        1.0        0.0
 113000      .113   -256077.7 -169812.98 425890.689  -256077.7 -169812.98 425890.689  -256077.7 -169812.98 425890.689        0.0
                          0.0        0.0 -253277.36 -173546.77 426824.136 -251960.44 -174352.02 426312.457 -79730.587 -600370.91
                   680101.497 -86264.719 -595703.67 681968.393 -86264.719 -595703.67 681968.393 24.4820489 34.6517263 -59.133774
                   -53.626517 103.613508 -49.986962        0.0   89.05925    .696068    .870259   6.886248   8.609533    .101081
                         400.    .059024    .025093    .354984    .213086    .836537    .010013     .00767   5491.719   109.8344
                          0.0        0.0        0.0        1.0        0.0
 113500     .1135  -193048.84 -231931.27 424980.107 -193048.84 -231931.27 424980.107 -193048.84 -231931.27 424980.107        0.0
                          0.0        0.0 -195913.14 -230665.01 426578.147 -194607.89 -233465.35  428073.24 34751.8674 -657243.15
                   622491.287 38882.4328 -656911.38 618028.944  38882.433 -656911.38 618028.944 63.2948771 -36.646328 -26.648549
                    -59.90943 97.5643142 -37.654885        0.0   89.05925    .696068    .870259   6.886248   8.609533    .101081
                         400.    .059024    .025093    .354984    .213086    .836537    .010013     .00767   5491.719   109.8344
                          0.0        0.0        0.0        1.0        0.0
 114000      .114   -128283.3 -294628.87 422912.166  -128283.3 -294628.87 422912.166  -128283.3 -294628.87 422912.166        0.0
                          0.0        0.0 -127848.46 -298408.42 426256.886 -132463.44   -286830.  419293.44 170559.964 -724665.31
                   554105.347 166345.571 -717541.03 551195.463 166345.571 -717541.03 551195.463 48.3320164  3.0594535 -51.391469
                   -64.379049  89.751741 -25.372706        0.0   89.05925    .696068    .870259   6.886248   8.609533    .101081
                         400.    .059024    .025093    .354984    .213086    .836537    .010013     .00767   5491.719   109.8344
                          0.0        0.0        0.0        1.0        0.0
 114500     .1145  -72107.178 -328216.11 400323.291 -72107.178 -328216.11 400323.291 -72107.178 -328216.11 400323.291        0.0
                          0.0        0.0 -75346.335 -321872.16 397218.499 -67057.308 -333131.94 400189.244 246525.829 -719090.66
                   472564.834 256108.935  -728539.4 472430.469 256108.935  -728539.4 472430.469 40.7660166 28.6253419 -69.391358
                   -67.020599 80.5584188 -13.537805        0.0   89.05925    .696068    .870259   6.886248   8.609533    .101081
                         400.    .059024    .025093    .354984    .213086    .836537    .010013     .00767   5491.719   109.8344
                          0.0        0.0        0.0        1.0        0.0
 115000      .115  2783.63253 -372844.17 370060.533 2783.63253 -372844.17 370060.533 2783.63267 -372844.17 370060.533        0.0
                          0.0        0.0 5407.76817 -378334.13 372926.366 .127058E-4 -371231.06  371231.06 383741.902  -751260.5
                   367518.598 375627.798  -742904.7 367276.901 375627.799  -742904.7 367276.901  67.458173 -21.457157 -46.001016
                   -67.812613 70.3055767 -2.4929828        0.0   89.05925    .696068    .870259   6.886248   8.609533    .101081
                         400.    .059024    .025093    .354984    .213086    .836537    .010013     .00767   5491.719   109.8344
                          0.0        0.0        0.0        1.0        0.0
 115500     .1155  64731.7294 -399267.17  334535.44 64731.7294 -399267.17  334535.44 64731.7295 -399267.17  334535.44        0.0
                          0.0        0.0 66062.8085 -404350.43 338287.619 67057.3081 -400189.24 333131.936 470413.236 -742638.05
                    272224.81 463998.899 -733802.61 269803.711 463998.899 -733802.61  269803.71 41.5602042 40.4723002 -82.032504
                   -66.600748 58.9497674 7.65096587        0.0   89.05925    .696068    .870259   6.886248   8.609533    .101081
                         400.    .059024    .025093    .354984    .213086    .836537    .010013     .00767   5491.719   109.8344
                          0.0        0.0        0.0        1.0        0.0
 116000      .116  136793.398 -422233.91 285440.507 136793.398 -422233.91 285440.507 136793.398 -422233.91 285440.507        0.0
                          0.0        0.0  134602.23 -416516.92 281914.687 132463.443 -419293.44 286829.997 551119.147  -698431.6
                   147312.457 559027.303 -707674.41 148647.108 559027.303 -707674.41 148647.108 54.6352318  11.730746 -66.365978
                   -63.558025 47.0832103 16.4748436        0.0   89.05925    .696068    .870259   6.886248   8.609533    .101081
                         400.    .059024    .025093    .354984    .213086    .836537    .010013     .00767   5491.719   109.8344
                          0.0        0.0        0.0        1.0        0.0
 116500     .1165  194848.082 -431192.39 236344.305 194848.082 -431192.39 236344.305 194848.082 -431192.39 236344.305        0.0
                          0.0        0.0 199920.625 -438075.59 238154.962 194607.888 -428073.24 233465.353 637996.212 -676230.55
                   38234.3375 626040.469 -667536.69 41496.2232  626040.47 -667536.69  41496.223 54.9377055 16.3998285 -71.337534
                   -58.680311 34.8035556 23.8767552        0.0   89.05925    .696068    .870259   6.886248   8.609533    .101081
                         400.    .059024    .025093    .354984    .213086    .836537    .010013     .00767   5491.719   109.8344
                          0.0        0.0        0.0        1.0        0.0
 117000      .117  249965.758 -422436.59  172470.83 249965.758 -422436.59  172470.83 249965.758 -422436.59  172470.83        0.0
                          0.0        0.0 247864.564 -421750.39  173885.83 251960.441 -426312.46 174352.016 669614.959 -595636.23
                   -73978.734 672402.347 -594907.42 -77494.928 672402.347 -594907.42 -77494.928 29.9121552 68.4451406 -98.357296
                   -52.067861 22.3867111 29.6811501        0.0   89.05925    .696068    .870259   6.886248   8.609533    .101081
                         400.    .059024    .025093    .354984    .213086    .836537    .010013     .00767   5491.719   109.8344
                          0.0        0.0        0.0        1.0        0.0
 117500     .1175  302983.333 -413154.86 110171.526 302983.333 -413154.86 110171.526 302983.333 -413154.86 110171.525        0.0
                          0.0        0.0 303214.362 -413498.07 110283.709 303108.891 -414054.45 110945.554 716712.434 -523781.78
                   -192930.65 716138.191 -523326.38 -192811.81 716138.191 -523326.38 -192811.81 58.9364757 5.07511129 -64.011587
                   -44.008449 10.3903798 33.6180546        0.0   89.05925    .696068    .870259   6.886248   8.609533    .101081
                         400.    .059024    .025093    .354984    .213086    .836537    .010013     .00767   5491.719   109.8344
                          0.0        0.0        0.0        1.0        0.0
 118000      .118  351272.637 -399284.58 48011.9416 351272.637 -399284.58 48011.9416 351272.637 -399284.58 48011.9414        0.0
                          0.0        0.0 354817.356 -404217.33 49399.9727 346793.795 -391601.04 44807.2447 759034.685  -453617.3
                   -305417.38 750557.215 -447296.52  -303260.7 750557.215 -447296.52  -303260.7 27.6097094 62.2268176 -89.836527
                    -34.52307  -1.259875 35.7829745        0.0   89.05925    .696068    .870259   6.886248   8.609533    .101081
                         400.    .059024    .025093    .354984    .213086    .836537    .010013     .00767   5491.719   109.8344
                          0.0        0.0        0.0        1.0        0.0
 118500     .1185  375930.694 -352168.39 -23762.301 375930.694 -352168.39 -23762.301 375930.694 -352168.39 -23762.302        0.0
                          0.0        0.0 373602.799  -346651.4 -26951.395 381939.485 -359505.12 -22434.368 720254.204 -319700.01
                   -400554.19 728099.086 -328406.09   -399693. 728099.086 -328406.09   -399693. 25.3410096 68.1560883 -93.497098
                   -23.984414 -12.014079 35.9984928        0.0   89.05925    .696068    .870259   6.886248   8.609533    .101081
                         400.    .059024    .025093    .354984    .213086    .836537    .010013     .00767   5491.719   109.8344
                          0.0        0.0        0.0        1.0        0.0
 119000      .119  411956.832 -321984.58 -89972.254 411956.832 -321984.58 -89972.254 411956.832 -321984.58 -89972.254        0.0
                          0.0        0.0 414734.951 -327132.84 -87602.107 407680.557 -318556.98 -89123.572 741867.795 -239530.74
                   -502337.06 733941.409 -232012.32 -501929.09 733941.409 -232012.32 -501929.09 38.9660656 28.9719531 -67.938019
                    -12.63289 -21.617843 34.2507332        0.0   89.05925    .696068    .870259   6.886248   8.609533    .101081
                         400.    .059024    .025093    .354984    .213086    .836537    .010013     .00767   5491.719   109.8344
                          0.0        0.0        0.0        1.0        0.0
 119500     .1195  417684.821 -266067.64 -151617.19 417684.821 -266067.64 -151617.19 417684.821 -266067.64 -151617.19        0.0
                          0.0        0.0 422645.388 -271804.64 -150840.75  423383.18 -269764.92 -153618.26 694450.024 -120963.88
                   -573486.14 683752.457 -114450.45 -569302.01 683752.457 -114450.45 -569302.01 4.05113039 91.5126816 -95.563813
                   -.64774228 -30.067109 30.7148221        0.0   89.05925    .696068    .870259   6.886248   8.609533    .101081
                         400.    .059024    .025093    .354984    .213086    .836537    .010013     .00767   5491.719   109.8344
                          0.0        0.0        0.0        1.0        0.0
  % % % % % %   Suspended simulation;  plot data space exhausted;  SPY SPACE is required.   LIMBUF =  840000.
  % % % % % %   Suspended simulation;  plot data space exhausted;  SPY SPACE is required.   LIMBUF =  840000.
  +++  Time-sharing disabled.   Send  user-keyed interrupt to silence alarm.
   Current values.  INDBUF  INDBEG  LIMBUF  MFLUSH  NUMDCD  KCARD1  KCARD2
                    839994      50  840000    1007     230       1     231
Plot timespan now in memory (in sec) = 1.04985997E-01   1.19985000E-01
   ++++  Begin plot-data copy from memory to disk.   MFLUSH, INDBUF, N4, Tbeg,  Tend = 1008  839994       1  -1.00000E+00
1.00000E+19
 120000       .12  427837.315 -213161.67 -214675.65 427837.315 -213161.67 -214675.65 427837.315 -213161.67 -214675.65        0.0
                          0.0        0.0 427034.658 -207608.01 -219426.65 428660.705 -214330.35 -214330.35  634642.67 11818.6341
                    -646461.3 640998.981 1513.98303 -642512.96 640998.981 1513.98327 -642512.96 20.1820602 51.0569351 -71.238996
                   11.5203794 -36.837746 25.3173378        0.0   89.05925    .696068    .870259   6.886248   8.609533    .101081
                         400.    .059024    .025093    .354984    .213086    .836537    .010013     .00767   5491.719   109.8344
                          0.0        0.0        0.0        1.0        0.0

Extrema of output variables follow.   Order and column positioning are the same as for the preceding time-step loop output.
Variable maxima :  484268.578 444967.163 435206.676 484268.578 444967.163 435206.676 541264.921 444967.163 435206.676        0.0
                          0.0        0.0 493169.804 457290.666 442751.954 428660.705 428660.703 428660.703 788337.314 768984.537
                   757568.531 775004.041 751833.366  756775.07  901308.09 752056.815  756775.07  638.30074 156.620624 30.8812626
                   91.2401529 121.071288 36.1569657        0.0   89.05925    .696068    .870259   6.886248   8.609533    .101081
                         400.    .059024    .025093    .354984    .213086    .836537    .010013     .00767   5491.719   109.8344
                          0.0        0.0        0.0        1.0        0.0
Times of maxima :     .060445    .086963    .073205    .060445    .086963    .073205    .059532    .086963    .073205        0.0
                          0.0        0.0    .060218    .067261    .073116        0.0    .006667    .113333    .059774    .085581
                      .071864    .059994    .105186    .071633    .059531    .065093    .071633    .059489    .081345    .068839
                      .065009    .071545    .118288        0.0        0.0        0.0        0.0        0.0        0.0        0.0
                          0.0        0.0        0.0        0.0        0.0        0.0        0.0        0.0        0.0        0.0
                          0.0        0.0        0.0        0.0        0.0
Variable minima :  -444331.79 -443113.97 -433821.87 -444331.79 -443113.97 -433821.87 -444331.79 -443113.97 -433821.87        0.0
                          0.0        0.0 -448644.16 -458250.29 -438939.73 -428660.71  -428660.7  -428660.7 -801565.51 -768937.14
                   -758696.78 -781492.77 -759891.97 -756523.12 -781492.77 -759891.97 -788178.55 -66.044647 -447.12111 -228.08126
                   -67.826678 -42.622569 -135.63657        0.0   89.05925    .696068    .870259   6.886248   8.609533    .101081
                         400.    .059024    .025093    .354984    .213086    .836537    .010013     .00767   5491.719   109.8344
                          0.0        0.0        0.0        1.0        0.0
Times of minima :     .069788    .096767    .083001    .069788    .096767    .083001    .069788    .096767    .083001        0.0
                          0.0        0.0    .070018    .077059    .083144        .01    .016667    .103333    .068567    .074614
                      .061595    .068335    .074444    .061364    .068335    .074444    .061362    .085325    .059207    .059494
                      .114966    .101611    .068249        0.0        0.0        0.0        0.0        0.0        0.0        0.0
                          0.0        0.0        0.0        0.0        0.0        0.0        0.0        0.0        0.0        0.0
                          0.0        0.0        0.0        0.0        0.0

Blank card terminating all plot cards.            |BLANK PLOT

Memory storage figures for the preceding, now-completed data case.  -------------------------------  Present   Program
A value of  "-9999"  indicates that no figure is available.         28-Feb-22  19:21:40              figure     limit  (name)
     Size List 1.   Number of electric network nodes.                                                   37      6000  (LBUS)
     Size List 2.   Number of electric network branches.                                                39     10000  (LBRNCH)
     Size List 3.   Number of data values in R, L, C tables.                                            45    192000  (LDATA)
     Size List 4.   Number of electric network sources.                                                  3       900  (LEXCT)
     Size List 5.   Storage for [Y] and triangularized [Y].   No. times =    3     Factors =    66     189    420000  (LYMAT)
     Size List 6.   Number of entries in switch table.                  No. flops = 18                  21      1200  (LSWTCH)
     Size List 7.   Number of distinct ALPHANUMERIC data names plus program SPY variables.              25     15000  (LSIZE7)
     Size List 8.   History points of distributed lines.                                               872    120000  (LPAST)
     Size List 9.   Number of nonlinear elements.                                                        0      2250  (LNONL)
     Size List 10.  Points of nonlinear characteristics.                                                 0      3800  (LCHAR)
     Size List 11.  Number of Type-59 S.M. outputs.                                                      0       720  (LSMOUT)
     Size List 12.  Total number of EMTP output variables.                                              55      2000  (LSIZ12)
     Size List 13.  Working space for batch/SPY plotting.                                            -9999     72800  (LSIZ13)
     Size List 14.  S.M./U.M. connections to TACS.                                                   -9999       510  (LBSTAC)
     Size List 15.  Character storage in bytes for MODELS.                                            3298     90000  (LCTACS)
     Size List 16.  Total number of Type-59 S.M. masses.                                                 0       800  (LIMASS)
     Size List 17.  Number of Type-59 Synchronous machines.                                              0        90  (LSYN)
     Size List 18.  Branch and switch power/energy outputs.                                              0       254  (MAXPE)
     Size List 19.  Total floating-point TACS table space.                                              23    120000  (LTACST)
     Size List 20.  Non-copied recursive convolution data.                                               0    100000  (LFSEM)
     Size List 21.  Total modal/phase [T] matrix storage.                                                9      3000  (LFD)
     Size List 22.  Total recursive convolution history.                                                 0     15000  (LHIST)
     Size List 23.  Giant vectors for renumbering, phasors;  also extrema accumulation.                  93    192000  (LSIZ23)
     Size List 24.  Peak phases of compensation for data.                                                0       120  (LCOMP)
     Size List 25.  Total table space for all U.M usage.                                             -9999     45000  (LSPCUM)
     Size List 26.  Square of max number of coupled phases.                                              9    260000  (LSIZ26)
     Size List 27.  Maximum number of MODELS top variables.                                             44       600  (LSIZ27)
     Size List 28.  MODELS.  Total work space is divided into INTEGER and REAL.  1st, REAL:           1780    210000  (LRTACS)
                             Second  and last,  statistics for INTEGER work space.                    6838         0  (LITACS)
     Size List 29.  RAM disk used by "TAPSAV" table saving (limit is "LABCOM" size LTLABL).          -9999       600  (LSIZ29)
     Size List 30.  Taku Noda frequency-dependent circuits.                                              0        19  (LSIZ30)
Timing figures characterizing central processor (CP) solution speed.  ----------------------------   CP sec  Wait sec  Real sec
     Data input time (through blank card ending branches) ....                                       0.000     0.000     0.000
     Node renumbering and phasor solution  ....                                                      0.031     0.000     0.031
     After phasor solution, but before time-step loop  ....                                          0.016     0.000     0.016
     Integration of equations (time-step loop)  ....                                                 1.047     0.000     1.047
     Plotting or STATISTICS termination overlays ....                                                0.000     0.000     0.000
                                                                                                    ---------------------------
                                                                                          Totals      1.094     0.000     1.094

