   ---   236   cards of disk file read into card cache cells  1   onward.
 Comment card is ignored.      |C   LBUS  LBRNCH   LDATA   LEXCT   LYMAT  LSWTCH
 Limit CIDEAL cards =   200    |CARDS        200 { Limit of CIDEAL will be 2 mor
 1st card (Lists  1-10).       |    6000   10000  192000     900  420000    120
 Comment card is ignored.      |C LSMOUT  LSIZ12  LSIZ13  LBSTAC  LCTACS  LIMASS
 2nd card (Lists 11-20).       |     720    2000   72800     510   90000     80
 Comment card is ignored.      |C    LFD   LHIST  LSIZ23   NCOMP  LSPCUM  LSIZ26
 3rd card (Lists 21-30).       |    3000   15000  192000     120   45000  26000
 4th card (Lists 31-32).       |     200     300     { Optional card for Lists
 Comment card is ignored.      |C  LWORK  LMARTI
 Supplemental offsets.         |  840000     742
 <===> Done with  "/"-card sorting by data class.    Remember that the source file appears different from interpreted input data.
Alternative Transients Program (ATP),  GNU Linux or DOS.  All rights reserved by Can/Am user group of Portland, Oregon, USA.
 Date (dd-mth-yy) and time of day (hh.mm.ss) = 28-Feb-22  21:15:58   Name of disk plot file is  p\bdfinalisima\energizacion4547.pl4
Consult the 860-page ATP Rule Book of the Can/Am EMTP User Group in Portland,  Oregon, USA.  Source code date is 12 August 2008.
Total size of LABCOM tables = 10913436 INTEGER words.  31 VARDIM  List Sizes follow:  6002  10K  192K  900  420K  1200  15K
  120K  2250  3800  720  2K  72800  510  90K  800  90  254  120K  100K  3K  15K  192K  120  45K  260K  600  210K  1100  60  200
--------------------------------------------------+--------------------------------------------------------------------------------
Descriptive interpretation of input data cards.   |  Input data card images are shown below, all 80 columns, character by character
                                                  0         1         2         3         4         5         6         7         8
                                                  012345678901234567890123456789012345678901234567890123456789012345678901234567890
--------------------------------------------------+--------------------------------------------------------------------------------
Comment card.   NUMDCD = 1.                       |C data:D:\ATP\BDFINALISIMA\ENERGIZACION4547.ATP
Marker card preceding new EMTP data case.         |BEGIN NEW DATA CASE
Comment card.   NUMDCD = 3.                       |C --------------------------------------------------------
Comment card.   NUMDCD = 4.                       |C Generated by ATPDRAW  febrero, lunes 28, 2022
Comment card.   NUMDCD = 5.                       |C A Bonneville Power Administration program
Comment card.   NUMDCD = 6.                       |C by H. K. Høidalen at SEfAS/NTNU - NORWAY 1994-2016
Comment card.   NUMDCD = 7.                       |C --------------------------------------------------------
Comment card.   NUMDCD = 8.                       |C  dT  >< Tmax >< Xopt >< Copt ><Epsiln>
Misc. data.     1.000E-06   1.200E-01   5.000E+01 |   1.E-6     .12     50.
Misc. data.    500    1  0  1  1  0  0  0  0  0   |     500       1       0       1       1       0       0       0       0
  ///  Warning.  Nonzero XOPT or COPT differs from the power frequency of  6.00000000E+01  Hz.   Did the user really want this?
No TACS data,  but MODELS data begins (next).     |MODELS
      Another ordinary MODELS data card.          |OUTPUT
      Another ordinary MODELS data card.          |  AnVol
      Another ordinary MODELS data card.          |  LONG
      Another ordinary MODELS data card.          |  R0F
      Another ordinary MODELS data card.          |  R1F
      Another ordinary MODELS data card.          |  X0F
      Another ordinary MODELS data card.          |  X1F
      Another ordinary MODELS data card.          |  RDIVX
      Another ordinary MODELS data card.          |  RINSER
      Another ordinary MODELS data card.          |  CLOSE1
      Another ordinary MODELS data card.          |  RPpos
      Another ordinary MODELS data card.          |  RPcero
      Another ordinary MODELS data card.          |  LPpos
      Another ordinary MODELS data card.          |  LPcero
      Another ordinary MODELS data card.          |  CPpos
      Another ordinary MODELS data card.          |  CPcero
      Another ordinary MODELS data card.          |  Xp
      Another ordinary MODELS data card.          |  CR
      Another ordinary MODELS data card.          |  SIMET
      Another ordinary MODELS data card.          |  ENC1
      Another ordinary MODELS data card.          |  ENC2
      Another ordinary MODELS data card.          |  ENC1AS
      Another ordinary MODELS data card.          |  ENC2AS
      Another ordinary MODELS data card.          |MODEL DEFAULT
      Another ordinary MODELS data card.          |DATA AnVol,LONG,R0F,R1F,X0F,X1F,RDIVX,RINSER,CLOSE1,RPpos,RPcero,LPpos,LPcero
      Another ordinary MODELS data card.          |OUTPUT o1,o2,o3, o4, o5, o6, o7, o8, o9, o10, o11, o12, o13
      Another ordinary MODELS data card.          |VAR o1,o2,o3, o4, o5, o6, o7, o8, o9, o10, o11, o12, o13
      Another ordinary MODELS data card.          |INIT
      Another ordinary MODELS data card.          |  o1:=AnVol
      Another ordinary MODELS data card.          |  o2:=LONG
      Another ordinary MODELS data card.          |  o3:=R0F
      Another ordinary MODELS data card.          |  o4:=R1F
      Another ordinary MODELS data card.          |  o5:=X0F
      Another ordinary MODELS data card.          |  O6:=X1F
      Another ordinary MODELS data card.          |  o7:=RDIVX
      Another ordinary MODELS data card.          |  o8:=RINSER
      Another ordinary MODELS data card.          |  o9:=CLOSE1
      Another ordinary MODELS data card.          |  o10:=RPpos
      Another ordinary MODELS data card.          |  o11:=RPcero
      Another ordinary MODELS data card.          |  o12:=LPpos
      Another ordinary MODELS data card.          |  o13:=LPcero
      Another ordinary MODELS data card.          |
      Another ordinary MODELS data card.          |ENDINIT
      Another ordinary MODELS data card.          |EXEC
      Another ordinary MODELS data card.          |ENDEXEC
      Another ordinary MODELS data card.          |ENDMODEL
      Another ordinary MODELS data card.          |MODEL DEFAULT1
      Another ordinary MODELS data card.          |DATA CPpos,CPcero,Xp,CR,SIMET,ENC1,ENC2,ENC1AS,ENC2AS
      Another ordinary MODELS data card.          |OUTPUT o1, o2, o3, o4, o5, o6, o7, o8, o9
      Another ordinary MODELS data card.          |VAR o1, o2, o3, o4, o5, o6, o7, o8, o9
      Another ordinary MODELS data card.          |INIT
      Another ordinary MODELS data card.          |  o1:=CPpos
      Another ordinary MODELS data card.          |  o2:=CPcero
      Another ordinary MODELS data card.          |  o3:=Xp
      Another ordinary MODELS data card.          |  o4:=CR
      Another ordinary MODELS data card.          |  o5:=SIMET
      Another ordinary MODELS data card.          |  o6:=ENC1
      Another ordinary MODELS data card.          |  o7:=ENC2
      Another ordinary MODELS data card.          |  o8:=ENC1AS
      Another ordinary MODELS data card.          |  o9:=ENC2AS
      Another ordinary MODELS data card.          |
      Another ordinary MODELS data card.          |ENDINIT
      Another ordinary MODELS data card.          |EXEC
      Another ordinary MODELS data card.          |ENDEXEC
      Another ordinary MODELS data card.          |ENDMODEL
      Another ordinary MODELS data card.          |USE DEFAULT AS DEFAULT
      Another ordinary MODELS data card.          |DATA
      Another ordinary MODELS data card.          |  AnVol:=      0.0
      Another ordinary MODELS data card.          |  LONG:=  22.9116
      Another ordinary MODELS data card.          |  R0F:= 2.315515
      Another ordinary MODELS data card.          |  R1F:= 1.744863
      Another ordinary MODELS data card.          |  X0F:= 14.67166
      Another ordinary MODELS data card.          |  X1F:= 11.05587
      Another ordinary MODELS data card.          |  RDIVX:= 0.157822
      Another ordinary MODELS data card.          |  RINSER:=     400.
      Another ordinary MODELS data card.          |  CLOSE1:= 0.048144
      Another ordinary MODELS data card.          |  RPpos:= 0.027907
      Another ordinary MODELS data card.          |  RPcero:= 0.245011
      Another ordinary MODELS data card.          |  LPpos:= 0.279939
      Another ordinary MODELS data card.          |  LPcero:= 1.328045
      Another ordinary MODELS data card.          |OUTPUT
      Another ordinary MODELS data card.          |  AnVol:=o1
      Another ordinary MODELS data card.          |  LONG:=o2
      Another ordinary MODELS data card.          |  R0F:=o3
      Another ordinary MODELS data card.          |  R1F:=o4
      Another ordinary MODELS data card.          |  X0F:=o5
      Another ordinary MODELS data card.          |  X1F:=o6
      Another ordinary MODELS data card.          |  RDIVX:=o7
      Another ordinary MODELS data card.          |  RINSER:=o8
      Another ordinary MODELS data card.          |  CLOSE1:=o9
      Another ordinary MODELS data card.          |  RPpos:=o10
      Another ordinary MODELS data card.          |  RPcero:=o11
      Another ordinary MODELS data card.          |  LPpos:=o12
      Another ordinary MODELS data card.          |  LPcero:=o13
      Another ordinary MODELS data card.          |ENDUSE
      Another ordinary MODELS data card.          |USE DEFAULT1 AS DEF
      Another ordinary MODELS data card.          |DATA
      Another ordinary MODELS data card.          |  CPpos:= 0.013657
      Another ordinary MODELS data card.          |  CPcero:= 0.008088
      Another ordinary MODELS data card.          |  Xp:= 15650.97
      Another ordinary MODELS data card.          |  CR:= 313.0194
      Another ordinary MODELS data card.          |  SIMET:=      0.0
      Another ordinary MODELS data card.          |  ENC1:=      0.0
      Another ordinary MODELS data card.          |  ENC2:=      0.0
      Another ordinary MODELS data card.          |  ENC1AS:=      0.0
      Another ordinary MODELS data card.          |  ENC2AS:=      0.0
      Another ordinary MODELS data card.          |OUTPUT
      Another ordinary MODELS data card.          |  CPpos:=o1
      Another ordinary MODELS data card.          |  CPcero:=o2
      Another ordinary MODELS data card.          |  Xp:=o3
      Another ordinary MODELS data card.          |  CR:=o4
      Another ordinary MODELS data card.          |  SIMET:=o5
      Another ordinary MODELS data card.          |  ENC1:=o6
      Another ordinary MODELS data card.          |  ENC2:=o7
      Another ordinary MODELS data card.          |  ENC1AS:=o8
      Another ordinary MODELS data card.          |  ENC2AS:=o9
      Another ordinary MODELS data card.          |ENDUSE
      Another ordinary MODELS data card.          |RECORD
      Another ordinary MODELS data card.          |  DEFAULT.o1 AS AnVOL
      Another ordinary MODELS data card.          |  DEFAULT.o2 AS LONG
      Another ordinary MODELS data card.          |  DEFAULT.o3 AS R0F
      Another ordinary MODELS data card.          |  DEFAULT.o4 AS R1F
      Another ordinary MODELS data card.          |  DEFAULT.o5 AS X0F
      Another ordinary MODELS data card.          |  DEFAULT.o6 AS X1F
      Another ordinary MODELS data card.          |  DEFAULT.o7 AS RDIVX
      Another ordinary MODELS data card.          |  DEFAULT.o8 AS RINSER
      Another ordinary MODELS data card.          |  DEFAULT.o9 AS CLOSE1
      Another ordinary MODELS data card.          |  DEFAULT.o10 AS RPpos
      Another ordinary MODELS data card.          |  DEFAULT.o11 AS RPcero
      Another ordinary MODELS data card.          |  DEFAULT.o12 AS LPpos
      Another ordinary MODELS data card.          |  DEFAULT.o13 AS LPcero
      Another ordinary MODELS data card.          |  DEF.o1 AS CPpos
      Another ordinary MODELS data card.          |  DEF.o2 AS CPcero
      Another ordinary MODELS data card.          |  DEF.o3 AS Xp
      Another ordinary MODELS data card.          |  DEF.o4 AS CR
      Another ordinary MODELS data card.          |  DEF.o5 AS SIMET
      Another ordinary MODELS data card.          |  DEF.o6 AS ENC1
      Another ordinary MODELS data card.          |  DEF.o7 AS ENC2
      Another ordinary MODELS data card.          |  DEF.o8 AS ENC1AS
      Another ordinary MODELS data card.          |  DEF.o9 AS ENC2AS
Termination of data for Laurent Dube`s MODELS.    |ENDMODELS
Comment card.   NUMDCD = 153.                     |C        1         2         3         4         5         6         7         8
Comment card.   NUMDCD = 154.                     |C 345678901234567890123456789012345678901234567890123456789012345678901234567890
Optional blank card follows last of MODELS data.  |BLANK MODELS
Comment card.   NUMDCD = 156.                     |C < n1 >< n2 ><ref1><ref2>< R  >< L  >< C  >
Comment card.   NUMDCD = 157.                     |C < n1 >< n2 ><ref1><ref2>< R  >< A  >< B  ><Leng><><>0
1st of coupled R-L.   2.31550E+00  4.67014E-02    |51IFUENASB1A              2.315514.671663115
2nd coil. 1.745E+00 3.519E-02 0.000E+00 0.000E+00 |52IFUENBSB1B              1.744911.055874723
Zca, Zcc= 1.902E-01 3.836E-03 1.935E+00 3.903E-02 |53IFUENCSB1C
Series R-L-C.   1.000E+09  0.000E+00  0.000E+00   |  SB1A                      1.E9                                               0
Series R-L-C.   1.000E+09  0.000E+00  0.000E+00   |  SB1B                      1.E9                                               0
Series R-L-C.   1.000E+09  0.000E+00  0.000E+00   |  SB1C                      1.E9                                               0
Series R-L-C.   1.000E+09  0.000E+00  0.000E+00   |  RSNSHA                    1.E9                                               0
Series R-L-C.   1.000E+09  0.000E+00  0.000E+00   |  RSNSHB                    1.E9                                               0
Series R-L-C.   1.000E+09  0.000E+00  0.000E+00   |  RSNSHC                    1.E9                                               0
Series R-L-C.   1.000E+09  0.000E+00  0.000E+00   |  RSNNHA                    1.E9                                               0
Series R-L-C.   1.000E+09  0.000E+00  0.000E+00   |  RSNNHB                    1.E9                                               0
Series R-L-C.   1.000E+09  0.000E+00  0.000E+00   |  RSNNHC                    1.E9                                               0
Series R-L-C.   1.000E+09  0.000E+00  0.000E+00   |  SE2A                      1.E9                                               0
Series R-L-C.   1.000E+09  0.000E+00  0.000E+00   |  SE2B                      1.E9                                               0
Series R-L-C.   1.000E+09  0.000E+00  0.000E+00   |  SE2C                      1.E9                                               0
Series R-L-C.   2.500E+02  0.000E+00  3.000E-10   |  X0001B                    250.       .0003                                   0
Series R-L-C.   2.500E+02  0.000E+00  3.000E-10   |  X0002B                    250.       .0003                                   0
Series R-L-C.   1.000E-06  0.000E+00  0.000E+00   |  X0001ALN1A               1.E-6                                               0
Series R-L-C.   1.000E-06  0.000E+00  0.000E+00   |  SB1A  X0002A             1.E-6                                               0
Series R-L-C.   1.000E-06  0.000E+00  0.000E+00   |  X0001BLN1B               1.E-6                                               0
Series R-L-C.   1.000E-06  0.000E+00  0.000E+00   |  SB1B  X0002B             1.E-6                                               0
Series R-L-C.   1.000E-06  0.000E+00  0.000E+00   |  X0001CLN1C               1.E-6                                               0
Series R-L-C.   1.000E-06  0.000E+00  0.000E+00   |  SB1C  X0002C             1.E-6                                               0
Series R-L-C.   4.000E+02  0.000E+00  0.000E+00   |  XX0005X0002A              400.                                               0
Series R-L-C.   4.000E+02  0.000E+00  0.000E+00   |  XX0003X0002B              400.                                               0
Series R-L-C.   4.000E+02  0.000E+00  0.000E+00   |  XX0004X0002C              400.                                               0
Series R-L-C.   2.500E+02  0.000E+00  3.000E-10   |  X0001A                    250.       .0003                                   0
Series R-L-C.   1.000E+06  0.000E+00  0.000E+00   |  X0001AX0002A              1.E6                                               0
Series R-L-C.   1.000E+06  0.000E+00  0.000E+00   |  X0001BX0002B              1.E6                                               0
Series R-L-C.   1.000E+06  0.000E+00  0.000E+00   |  X0001CX0002C              1.E6                                               0
Series R-L-C.   2.500E+02  0.000E+00  3.000E-10   |  X0002C                    250.       .0003                                   0
Series R-L-C.   2.500E+02  0.000E+00  3.000E-10   |  X0002A                    250.       .0003                                   0
Series R-L-C.   2.500E+02  0.000E+00  3.000E-10   |  X0001C                    250.       .0003                                   0
Series R-L-C.   1.250E+02  0.000E+00  6.000E-10   |  X0001AX0002A              125.       .0006                                   0
Series R-L-C.   1.250E+02  0.000E+00  6.000E-10   |  X0001BX0002B              125.       .0006                                   0
Series R-L-C.   1.250E+02  0.000E+00  6.000E-10   |  X0001CX0002C              125.       .0006                                   0
 2.450E-01 1.328E+00 8.090E-03 7.229E+02 1.340E-04|-1LN1A  VFF2A             .24501 1.328.0080922.912 0 0                         0
 2.791E-02 2.799E-01 1.366E-02 2.554E+02 7.994E-05|-2LN1B  VFF2B             .02791.27994.0136622.912 0 0                         0
3rd or later transposed distributed phase.        |-3LN1C  VFF2C                                                                  0
Blank card ending branches.  IBR, NTOT = 39  31   |BLANK BRANCH
Comment card.   NUMDCD = 198.                     |C < n 1>< n 2>< Tclose ><Top/Tde ><   Ie   ><Vf/CLOP ><  type  >
Switch.  -1.00E+00  1.00E+01  0.00E+00  0.00E+00  |  LN1A  COMPA        -1.       10.                                             0
Switch.  -1.00E+00  1.00E+01  0.00E+00  0.00E+00  |  LN1B  COMPB        -1.       10.                                             0
Switch.  -1.00E+00  1.00E+01  0.00E+00  0.00E+00  |  LN1C  COMPC        -1.       10.                                             0
Switch.  -1.00E+00  1.00E+01  0.00E+00  0.00E+00  |  VFF2A RSNNHA       -1.       10.                                             0
Switch.  -1.00E+00  1.00E+01  0.00E+00  0.00E+00  |  VFF2B RSNNHB       -1.       10.                                             0
Switch.  -1.00E+00  1.00E+01  0.00E+00  0.00E+00  |  VFF2C RSNNHC       -1.       10.                                             0
Switch.   2.00E+00 -1.00E+00  0.00E+00  0.00E+00  |  VFF2A SE2A          2.       -1.                                             0
Switch.   2.00E+00 -1.00E+00  0.00E+00  0.00E+00  |  VFF2B SE2B          2.       -1.                                             0
Switch.   2.00E+00 -1.00E+00  0.00E+00  0.00E+00  |  VFF2C SE2C          2.       -1.                                             0
Switch.   4.81E-02  1.00E+03  0.00E+00  0.00E+00  |  X0001BXX0003.048144212      1.E3                                             0
Switch.   4.81E-02  1.00E+03  0.00E+00  0.00E+00  |  X0001CXX0004.048144212      1.E3                                             0
Switch.   5.56E-02  1.00E+03  0.00E+00  0.00E+00  |  XX0005X0002A.055644212      1.E3                                             0
Switch.   5.56E-02  1.00E+03  0.00E+00  0.00E+00  |  XX0003X0002B.055644212      1.E3                                             0
Switch.   5.56E-02  1.00E+03  0.00E+00  0.00E+00  |  XX0004X0002C.055644212      1.E3                                             0
Switch.   4.81E-02  1.00E+03  0.00E+00  0.00E+00  |  X0001AXX0005.048144212      1.E3                                             0
Permanently-closed switch used for metering.      |  VFUENAIFUENA                                        MEASURING                1
Permanently-closed switch used for metering.      |  VFUENBIFUENB                                        MEASURING                1
Permanently-closed switch used for metering.      |  VFUENCIFUENC                                        MEASURING                1
Permanently-closed switch used for metering.      |  COMPA RSNSHA                                        MEASURING                1
Permanently-closed switch used for metering.      |  COMPB RSNSHB                                        MEASURING                1
Permanently-closed switch used for metering.      |  COMPC RSNSHC                                        MEASURING                1
Blank card ending switches.   KSWTCH = 21.        |BLANK SWITCH
Comment card.   NUMDCD = 221.                     |C < n 1><>< Ampl.  >< Freq.  ><Phase/T0><   A1   ><   T1   >< TSTART >< TSTOP  >
Source.   4.29E+05  5.00E+01  0.00E+00 -1.00E+00  |14VFUENA  428660.705       50.                                     -1.      100.
Source.   4.29E+05  5.00E+01 -1.20E+02 -1.00E+00  |14VFUENB  428660.705       50.     -120.                           -1.      100.
Source.   4.29E+05  5.00E+01 -2.40E+02 -1.00E+00  |14VFUENC  428660.705       50.     -240.                           -1.      100.
Blank card ends electric sources.  KCONST = 3     |BLANK SOURCE
Pi-equivalent branches of distributed circuits are added to the table of List Size 3 between indices  40   and  45.

Sinusoidal steady-state phasor solution, branch by branch.   All flows are away from a bus,  and the real part,  magnitude,  or  "P"
is printed above the imaginary part,  the angle,  or  "Q".   The first solution frequency  =  5.00000000E+01  Hertz.
  Bus K                        Phasor  node  voltage              Phasor  branch  current               Power flow       Power loss
             Bus M         Rectangular            Polar          Rectangular            Polar            P  and  Q        P  and  Q

 IFUENA                    428660.705       428660.705      .42741405645053  .44542187553372      91607.805382497  .17309464465296
                                  0.0              0.0      .12537093583636       16.3476958      -26870.79687106        1.0967464

            SB1A      428661.34529057  428661.34531909      -.4274140564505  .44542187553372      -91607.63228785
                      -4.944196008913       -0.0006609      -.1253709358364     -163.6523042      26871.893617412

 IFUENB                  -214330.3525       428660.705      -.1051326128945  .44542187553243      91607.805382231  .17309464465101
                      -371231.0601341     -120.0000000      -.4328368987376     -103.6523042      -26870.79687098        1.0967464

            SB1B      -214334.9544446  428661.34531909      .10513261289446  .44542187553243      -91607.63228759
                       -371229.142544     -120.0006609      .43283689873763       76.3476958      26871.893617331

 IFUENC                  -214330.3525       428660.705      -.3222814435518  .44542187553182      91607.805382331  .17309464465288
                      371231.06013415      120.0000000      .30746596290393      136.3476958      -26870.79687018        1.0967464

            SB1C      -214326.3908459  428661.34531909      .32228144355182  .44542187553182      -91607.63228769
                      371234.08674005      119.9993391      -.3074659629039      -43.6523042      26871.893616528

 SB1A                 428661.34529057  428661.34531909      .42866134529E-3  .42866134532E-3      91.875274485385  91.875274485385
                      -4.944196008913       -0.0006609      -.4944196009E-8       -0.0006609      -.275285708E-20        0.0000000

            TERRA                 0.0              0.0      -.4286613453E-3  .42866134532E-3                  0.0
                                  0.0              0.0      .49441960089E-8      179.9993391                  0.0

 SB1B                 -214334.9544446  428661.34531909      -.2143349544E-3  .42866134532E-3      91.875274485385  91.875274485385
                       -371229.142544     -120.0006609      -.3712291425E-3     -120.0006609      -.196717642E-14        0.0000000

            TERRA                 0.0              0.0      .21433495444E-3  .42866134532E-3                  0.0
                                  0.0              0.0      .37122914254E-3       59.9993391                  0.0

 SB1C                 -214326.3908459  428661.34531909      -.2143263908E-3  .42866134532E-3      91.875274485385  91.875274485385
                      371234.08674005      119.9993391      .37123408674E-3      119.9993391      .1734723476E-16        0.0000000

            TERRA                 0.0              0.0      .21432639085E-3  .42866134532E-3                  0.0
                                  0.0              0.0      -.3712340867E-3      -60.0006609                  0.0

 RSNSHA               863.36440154862  4422.5570657688      .86336440155E-6  .44225570658E-5      .00977950549999  .00977950549999
                      -4337.466185473      -78.7425193      -.4337466185E-5      -78.7425193      -.292226367E-19        0.0000000

            TERRA                 0.0              0.0      -.8633644015E-6  .44225570658E-5                  0.0
                                  0.0              0.0      .43374661855E-5      101.2574807                  0.0

 RSNSHB               -4188.038105451  4422.5570657698      -.4188038105E-5  .44225570658E-5          .0097795055      .0097795055
                      1421.0375882727      161.2574807      .14210375883E-5      161.2574807      .9698527246E-19        0.0000000

            TERRA                 0.0              0.0      .41880381055E-5  .44225570658E-5                  0.0
                                  0.0              0.0      -.1421037588E-5      -18.7425193                  0.0

 RSNSHC               3324.6737039019  4422.5570657689      .33246737039E-5  .44225570658E-5      .00977950549999  .00977950549999
                         2916.4285972       41.2574807      .29164285972E-5       41.2574807      -.173641754E-19        0.0000000

            TERRA                 0.0              0.0      -.3324673704E-5  .44225570658E-5                  0.0
                                  0.0              0.0      -.2916428597E-5     -138.7425193                  0.0

 RSNNHA               863.50025288685  4423.9519807049      .86350025289E-6  .44239519807E-5      .00978567556379  .00978567556379
                      -4338.861422176      -78.7443213      -.4338861422E-5      -78.7443213      -.891502177E-19        0.0000000

            TERRA                 0.0              0.0      -.8635002529E-6  .44239519807E-5                  0.0
                                  0.0              0.0      .43388614222E-5      101.2556787                  0.0

 RSNNHB               -4189.314341549  4423.9519807059      -.4189314342E-5  .44239519807E-5       .0097856755638   .0097856755638
                      1421.6175559143      161.2556787      .14216175559E-5      161.2556787       -.18020626E-18        0.0000000

            TERRA                 0.0              0.0      .41893143415E-5  .44239519807E-5                  0.0
                                  0.0              0.0      -.1421617556E-5      -18.7443213                  0.0

 RSNNHC               3325.8140886621  4423.9519807051      .33258140887E-5  .44239519807E-5      .00978567556379  .00978567556379
                      2917.2438662616       41.2556787      .29172438663E-5       41.2556787      .9571472304E-19        0.0000000

            TERRA                 0.0              0.0      -.3325814089E-5  .44239519807E-5                  0.0
                                  0.0              0.0      -.2917243866E-5     -138.7443213                  0.0

 X0001B                -4188.03810559  4422.5570657698      -.1339389375E-3  .41681618352E-3      .21716966356E-4  .21716966356E-4
                      1421.0375878608      161.2574807      -.3947101365E-3     -108.7438693      -.9216966785241       -0.9216967

            TERRA                 0.0              0.0      .13393893753E-3  .41681618352E-3                  0.0
                                  0.0              0.0       .3947101365E-3       71.2561307                  0.0

 X0002B               -214334.9544445  428661.34531866      .03498704642571  .04040037998872      .20402383790383  .20402383790383
                      -371229.1425436     -120.0006609      -.0202014179116      -30.0020109       -8659.04061627    -8659.0406163

            TERRA                 0.0              0.0      -.0349870464257  .04040037998872                  0.0
                                  0.0              0.0      .02020141791157      149.9979891                  0.0

 X0001A               863.36440197519  4422.5570657688        .426574388257  .43493900389828      .04188779906145  .94585968544E-7
                      -4337.466185388      -78.7425193      .08488950697938       11.2549853      -961.7712815222              0.0

            LN1A      863.36440154862  4422.5570657688       -.426574388257  .43493900389828      -.0418877044755
                      -4337.466185473      -78.7425193      -.0848895069794     -168.7450147      961.77128152224

 SB1A                 428661.34529057  428661.34531909      .42695319280028  .44497966440699      91508.855071684  .99003450771E-7
                      -4.944196008913       -0.0006609      .12537094118414       16.3643989      -26871.89362431              0.0

            X0002A    428661.34529015  428661.34531866      -.4269531928003  .44497966440699      -91508.85507159
                      -4.944196134284       -0.0006609      -.1253709411841     -163.6356011      26871.893624306

 X0001B                -4188.03810559  4422.5570657698      -.1397711457685  .43493912549785      .04278011865653   .9458602146E-7
                      1421.0375878608      161.2574807      -.4118689957977     -108.7450678      -961.7715503737              0.0

            LN1B      -4188.038105451  4422.5570657698      .13977114576846  .43493912549785      -.0427800240705
                      1421.0375882727      161.2574807       .4118689957977       71.2549322      961.77155037369

 SB1B                 -214334.9544446  428661.34531909      -.1049193087965  .44502756988512      91519.069522873  .99024767053E-7
                       -371229.142544     -120.0006609      -.4324829205871     -103.6363746      -26873.55102063        0.0000000

            X0002B    -214334.9544445  428661.34531866      .10491930879653  .44502756988512      -91519.06952277
                      -371229.1425436     -120.0006609      .43248292058706       76.3636254      26873.551020631

 X0001C               3324.6737036151   4422.557065769      -.2868036972359  .43493918603544       .0421424069263    .945860478E-7
                      2916.4285975269       41.2574807        .326979716192      131.2549702      -961.7716842671              0.0

            LN1C      3324.6737039019  4422.5570657689      .28680369723588  .43493918603544      -.0421423123403
                         2916.4285972       41.2574807       -.326979716192      -48.7450298      961.77168426713

 SB1C                 -214326.3908459  428661.34531909      -.3220629878342  .44501370869107      91516.964666985  .99018599542E-7
                      371234.08674005      119.9993391      .30710361897945      136.3620355      -26870.17444491              0.0

            X0002C    -214326.3908456  428661.34531866      .32206298783422  .44501370869107      -91516.96466689
                      371234.08673975      119.9993391      -.3071036189795      -43.6379645      26870.174444907

 XX0005               428661.34529015  428661.34531866                  0.0              0.0                  0.0              0.0
                      -4.944196134284       -0.0006609                  0.0              0.0                  0.0              0.0

            X0002A    428661.34529015  428661.34531866                  0.0              0.0                  0.0
                      -4.944196134284       -0.0006609                  0.0              0.0                  0.0

 XX0003               -214334.9544445  428661.34531866                  0.0              0.0                  0.0              0.0
                      -371229.1425436     -120.0006609                  0.0              0.0                  0.0              0.0

            X0002B    -214334.9544445  428661.34531866                  0.0              0.0                  0.0
                      -371229.1425436     -120.0006609                  0.0              0.0                  0.0

 XX0004               -214326.3908456  428661.34531866                  0.0              0.0                  0.0              0.0
                      371234.08673975      119.9993391                  0.0              0.0                  0.0              0.0

            X0002C    -214326.3908456  428661.34531866                  0.0              0.0                  0.0
                      371234.08673975      119.9993391                  0.0              0.0                  0.0

 X0001A               863.36440197519  4422.5570657688      .40879847411E-3  .41681618352E-3      .21716966356E-4  .21716966356E-4
                      -4337.466185388      -78.7425193      .81360545791E-4       11.2561307      -.9216966785237       -0.9216967

            TERRA                 0.0              0.0      -.4087984741E-3  .41681618352E-3                  0.0
                                  0.0              0.0      -.8136054579E-4     -168.7438693                  0.0

 X0001A               863.36440197519  4422.5570657688      -.4277979808882  .42781991912344      -175.2766901549  91514.941599392
                      -4337.466185388      -78.7425193      -.0043325219893     -179.4197571      929.64991076798        0.0000000

            X0002A    428661.34529015  428661.34531866      .42779798088817  .42781991912344      91690.218289547
                      -4.944196134284       -0.0006609      .00433252198925        0.5802429       -929.649910768

 X0001B                -4188.03810559  4422.5570657698      .21014691633894  .42781991912344      -175.2766901549  91514.941599392
                      1421.0375878608      161.2574807      .37265018013147       60.5802429       929.6499107682        0.0000000

            X0002B    -214334.9544445  428661.34531866      -.2101469163389  .42781991912344      91690.218289547
                      -371229.1425436     -120.0006609      -.3726501801315     -119.4197571      -929.6499107682

 X0001C               3324.6737036151   4422.557065769      .21765106454924  .42781991912344      -175.2766901547  91514.941599392
                      2916.4285975269       41.2574807      -.3683176581422      -59.4197571      929.64991076806        0.0000000

            X0002C    -214326.3908456  428661.34531866      -.2176510645492  .42781991912344      91690.218289547
                      371234.08673975      119.9993391      .36831765814222      120.5802429      -929.6499107681

 X0002C               -214326.3908456  428661.34531866      -.0349884643167  .04040037998872      .20402383790415  .20402383790415
                      371234.08673975      119.9993391      -.0201989620523     -150.0020109       -8659.04061627    -8659.0406163

            TERRA                 0.0              0.0      .03498846431674  .04040037998872                  0.0
                                  0.0              0.0      .02019896205226       29.9979891                  0.0

 X0002A               428661.34529015  428661.34531866      .14178910343E-5  .04040037998872      .20402383790408  .20402383790408
                      -4.944196134284       -0.0006609      .04040037996383       89.9979891       -8659.04061627    -8659.0406163

            TERRA                 0.0              0.0      -.1417891034E-5  .04040037998872                  0.0
                                  0.0              0.0      -.0404003799638      -90.0020109                  0.0

 X0001C               3324.6737036151   4422.557065769      -.2748595366E-3  .41681618352E-3      .21716966356E-4  .21716966356E-4
                      2916.4285975269       41.2574807      .31334959071E-3      131.2561307      -.9216966785237       -0.9216967

            TERRA                 0.0              0.0      .27485953658E-3  .41681618352E-3                  0.0
                                  0.0              0.0      -.3133495907E-3      -48.7438693                  0.0

 X0001A               863.36440197519  4422.5570657688      .81476116615E-3  .08064215487627      175.23410124725  .40644732144302
                      -4337.466185388      -78.7425193      -.0806380388361      -89.4211071      33.043006584416   -17250.1600838

            X0002A    428661.34529015  428661.34531866      -.8147611661E-3  .08064215487627      -174.8276539258
                      -4.944196134284       -0.0006609      .08063803883609       90.5788929      -17283.20309035

 X0001B                -4188.03810559  4422.5570657698      -.0702419707265  .08064215487627      175.23410124729  .40644732144277
                      1421.0375878608      161.2574807      .03961341555014      150.5788929      33.043006584412   -17250.1600838

            X0002B    -214334.9544445  428661.34531866      .07024197072648  .08064215487627      -174.8276539258
                      -371229.1425436     -120.0006609      -.0396134155501      -29.4211071      -17283.20309035

 X0001C               3324.6737036151   4422.557065769      .06942720956033  .08064215487627      175.23410124726  .40644732144219
                      2916.4285975269       41.2574807      .04102462328595       30.5788929      33.043006584374   -17250.1600838

            X0002C    -214326.3908456  428661.34531866      -.0694272095603  .08064215487627      -174.8276539258
                      371234.08673975      119.9993391      -.0410246232859     -149.4211071      -17283.20309035

 LN1A                 863.36440154862  4422.5570657688      .42657352974302  .43493897621636      .03246883744441  .02268316181275
                      -4337.466185473      -78.7425193      .08489367912111       11.2555464      -961.7712206739     -961.7712207

            VFF2A     863.50025288685  4423.9519807049      -.8635002464E-6  .44239520114E-5      -.0097856756317
                      -4338.861422176      -78.7443213      .43388614548E-5      101.2556785      -.281900223E-10

 LN1B                 -4188.038105451  4422.5570657698      -.1397666821319  .43493897621642      .03246883734246  .02268316181848
                      1421.0375882727      161.2574807      -.4118703529001     -108.7444536      -961.7712206742     -961.7712207

            VFF2B     -4189.314341549  4423.9519807059      .41893143097E-5  .44239519627E-5       -.009785675524
                      1421.6175559143      161.2556787      -.1421617594E-5      -18.7443219      -.1019292967E-9

 LN1C                 3324.6737039019  4422.5570657689      -.2868068476111  .43493897621641       .0324688372934  .02268316181223
                         2916.4285972       41.2574807      .32697667377896      131.2555464       -961.771220674     -961.7712207

            VFF2C     3325.8140886621  4423.9519807051      -.3325814045E-5  .44239519433E-5      -.0097856754812
                      2917.2438662616       41.2556787      -.2917243859E-5     -138.7443210      .5189497828E-10
     Total network loss  P-loss  by summing injections =   2.748012566037E+05

Output for steady-state phasor switch currents.
      Node-K    Node-M            I-real            I-imag            I-magn          Degrees        Power            Reactive
      LN1A      COMPA         1.00084773E-06   -2.72884237E-06    2.90659197E-06     -69.8587    6.35017891E-03   -9.92578917E-04
      LN1B      COMPB        -3.99417734E-06    1.04315901E-06    4.12815133E-06     165.3630    9.10506754E-03   -6.53543232E-04
      LN1C      COMPC         3.00779798E-06    3.26961308E-06    4.44265893E-06      47.3883    9.76776998E-03   -1.04918429E-03
      VFF2A     RSNNHA        8.63500357E-07   -4.33886148E-06    4.42395206E-06     -78.7443    9.78567574E-03   -2.00879895E-10
      VFF2B     RSNNHB       -4.18931433E-06    1.42161746E-06    4.42395193E-06     161.2557    9.78567546E-03   -1.99869243E-10
      VFF2C     RSNNHC        3.32581407E-06    2.91724390E-06    4.42395199E-06      41.2557    9.78567558E-03   -8.83094812E-11
      VFF2A     SE2A              Open              Open              Open             Open          Open              Open
      VFF2B     SE2B              Open              Open              Open             Open          Open              Open
      VFF2C     SE2C              Open              Open              Open             Open          Open              Open
      X0001B    XX0003            Open              Open              Open             Open          Open              Open
      X0001C    XX0004            Open              Open              Open             Open          Open              Open
      XX0005    X0002A            Open              Open              Open             Open          Open              Open
      XX0003    X0002B            Open              Open              Open             Open          Open              Open
      XX0004    X0002C            Open              Open              Open             Open          Open              Open
      X0001A    XX0005            Open              Open              Open             Open          Open              Open
      VFUENA    IFUENA        4.27414056E-01    1.25370936E-01    4.45421876E-01      16.3477    9.16078054E+04   -2.68707969E+04
      VFUENB    IFUENB       -1.05132613E-01   -4.32836899E-01    4.45421876E-01    -103.6523    9.16078054E+04   -2.68707969E+04
      VFUENC    IFUENC       -3.22281444E-01    3.07465963E-01    4.45421876E-01     136.3477    9.16078054E+04   -2.68707969E+04
      COMPA     RSNSHA        1.00084773E-06   -2.72884237E-06    2.90659197E-06     -69.8587    6.35017891E-03   -9.92578917E-04
      COMPB     RSNSHB       -3.99417734E-06    1.04315901E-06    4.12815133E-06     165.3630    9.10506754E-03   -6.53543232E-04
      COMPC     RSNSHC        3.00779798E-06    3.26961308E-06    4.44265893E-06      47.3883    9.76776998E-03   -1.04918429E-03

Solution at nodes with known voltage.   Nodes that are shorted together by switches are shown as a group of names, with the printed
result applying to the composite group.   The entry "MVA" is  SQRT( P**2 + Q**2 )  in units of power,  while  "P.F."  is the
associated power factor.
              Node                Source  node  voltage             Injected  source  current              Injected  source  power
              name         Rectangular            Polar          Rectangular            Polar            P  and  Q    MVA and P.F.

               VFUENA
              IFUENA       428660.705       428660.705      .42741405644957  .44542187553218      91607.805382291  95467.427594023
                                  0.0              0.0      .12537093583414       16.3476958      -26870.79687059        0.9595713

               VFUENB
              IFUENB     -214330.3525       428660.705      -.1051326128985   .4454218755335      91607.805382687  95467.427594307
                      -371231.0601341     -120.0000000      -.4328368987378     -103.6523042      -26870.79687024        0.9595713

               VFUENC
              IFUENC     -214330.3525       428660.705      -.3222814435502  .44542187553166       91607.80538243  95467.427593912
                      371231.06013415      120.0000000       .3074659629054      136.3476958      -26870.79686972        0.9595713

  +++  Node  "COMPC "  has no connected linear branches.  Add (to ground) the conductance  G = 1.00000000E-18  mhos.
  +++  Node  "COMPB "  has no connected linear branches.  Add (to ground) the conductance  G = 1.00000000E-18  mhos.
  +++  Node  "COMPA "  has no connected linear branches.  Add (to ground) the conductance  G = 1.00000000E-18  mhos.
Card of names for time-step loop output.          |  LN1A  LN1B  LN1C  COMPA COMPB COMPC SB1A  SB1B  SB1C  SE2A  SE2B  SE2C  VFF2A
Card of names for time-step loop output.          |  VFF2B VFF2C IFUENAIFUENBIFUENC
Card of names for time-step loop output.          |-5VFF2A VFF2B VFF2B VFF2C VFF2C VFF2A LN1A  LN1B  LN1B  LN1C  LN1C  LN1A
Card of names for time-step loop output.          |-5SB1A  SB1B  SB1B  SB1C  SB1C  SB1A
Blank card ending requests for output variables.  |BLANK OUTPUT

Column headings for the  55   EMTP output variables follow.  These are divided among the 5 possible classes as follows ....
  First  27     output variables are electric-network voltage differences (upper voltage minus lower voltage);
  Next   6     output variables are branch currents (flowing from the upper node to the lower node);
  Next   22     output variables belong to MODELS (with "MODELS" an internally-added upper name of pair).
   Step      Time      LN1A       LN1B       LN1C       COMPA      COMPB      COMPC      SB1A       SB1B       SB1C       SE2A
 

                       SE2B       SE2C       VFF2A      VFF2B      VFF2C      IFUENA     IFUENB     IFUENC     VFF2A      VFF2B
                                                                                                               VFF2B      VFF2C

                       VFF2C      LN1A       LN1B       LN1C       SB1A       SB1B       SB1C       VFUENA     VFUENB     VFUENC
                       VFF2A      LN1B       LN1C       LN1A       SB1B       SB1C       SB1A       IFUENA     IFUENB     IFUENC

                       COMPA      COMPB      COMPC      MODELS     MODELS     MODELS     MODELS     MODELS     MODELS     MODELS
                       RSNSHA     RSNSHB     RSNSHC     ANVOL      LONG       R0F        R1F        X0F        X1F        RDIVX

                       MODELS     MODELS     MODELS     MODELS     MODELS     MODELS     MODELS     MODELS     MODELS     MODELS
                       RINSER     CLOSE1     RPPOS      RPCERO     LPPOS      LPCERO     CPPOS      CPCERO     XP         CR

                       MODELS     MODELS     MODELS     MODELS     MODELS
                       SIMET      ENC1       ENC2       ENC1AS     ENC2AS
 ***      Phasor I(0) =  1.0008477E-06                     Switch  "LN1A  "  to  "COMPA "  closed in the steady-state.
 ***      Phasor I(0) = -3.9941773E-06                     Switch  "LN1B  "  to  "COMPB "  closed in the steady-state.
 ***      Phasor I(0) =  3.0077980E-06                     Switch  "LN1C  "  to  "COMPC "  closed in the steady-state.
 ***      Phasor I(0) =  8.6350036E-07                     Switch  "VFF2A "  to  "RSNNHA"  closed in the steady-state.
 ***      Phasor I(0) = -4.1893143E-06                     Switch  "VFF2B "  to  "RSNNHB"  closed in the steady-state.
 ***      Phasor I(0) =  3.3258141E-06                     Switch  "VFF2C "  to  "RSNNHC"  closed in the steady-state.
 ***      Phasor I(0) =  4.2741406E-01                     Switch  "VFUENA"  to  "IFUENA"  closed in the steady-state.
 ***      Phasor I(0) = -1.0513261E-01                     Switch  "VFUENB"  to  "IFUENB"  closed in the steady-state.
 ***      Phasor I(0) = -3.2228144E-01                     Switch  "VFUENC"  to  "IFUENC"  closed in the steady-state.
 ***      Phasor I(0) =  1.0008477E-06                     Switch  "COMPA "  to  "RSNSHA"  closed in the steady-state.
 ***      Phasor I(0) = -3.9941773E-06                     Switch  "COMPB "  to  "RSNSHB"  closed in the steady-state.
 ***      Phasor I(0) =  3.0077980E-06                     Switch  "COMPC "  to  "RSNSHC"  closed in the steady-state.
      0       0.0  863.364402 -4188.0381  3324.6737 863.364402 -4188.0381  3324.6737 428661.345 -214334.95 -214326.39        0.0
                          0.0        0.0 863.500253 -4189.3143 3325.81409 428660.705 -214330.35 -214330.35 5052.81459 -7515.1284
                   2462.31384 5051.40251 -7512.7118  2461.3093   642996.3 -8.5635987 -642987.74 .427414056 -.10513261 -.32228144
                   .100085E-5 -.39942E-5  .30078E-5        0.0    22.9116   2.315515   1.744863   14.67166   11.05587    .157822
                         400.    .048144    .027907    .245011    .279939   1.328045    .013657    .008088   15650.97   313.0194
                          0.0        0.0        0.0        0.0        0.0
    500     .5E-3  1531.26194 -4358.7741 2827.51212 1531.26194 -4358.7741 2827.51212 423384.596 -153623.11 -269761.49        0.0
                          0.0        0.0 1531.61702 -4360.1267 2828.50967  423383.18 -153618.26 -269764.92 5891.74371 -7188.6364
                   1296.89264 5890.03601 -7186.2862 1296.25017 577007.703  116138.38 -693146.08 .402533641 -.03612587 -.36640777
                   .163713E-5  -.4808E-5 .317092E-5        0.0    22.9116   2.315515   1.744863   14.67166   11.05587    .157822
                         400.    .048144    .027907    .245011    .279939   1.328045    .013657    .008088   15650.97   313.0194
                          0.0        0.0        0.0        0.0        0.0
   1000     .1E-2  2161.45985 -4422.1852 2260.72534 2161.45985 -4422.1852 2260.72534 407682.703 -89128.546 -318554.16        0.0
                          0.0        0.0 2162.01937 -4423.5778 2261.55845 407680.557 -89123.572 -318556.98 6585.59718 -6685.1363
                   99.5390884 6583.64504 -6682.9105 99.2654848 496811.248 229425.611 -726236.86 .367745218 .033768537 -.40151375
                   .210664E-5 -.49252E-5 .236416E-5        0.0    22.9116   2.315515   1.744863   14.67166   11.05587    .157822
                         400.    .048144    .027907    .245011    .279939   1.328045    .013657    .008088   15650.97   313.0194
                          0.0        0.0        0.0        0.0        0.0
   1500     .0015  2738.43104 -4376.7052 1638.27418 2738.43104 -4376.7052 1638.27418 381942.308 -22439.343 -359502.97        0.0
                          0.0        0.0 2739.18512 -4378.1055 1638.92041 381939.485 -22434.368 -359505.12 7117.29065 -6017.0259
                   -1100.2647 7115.13626 -6014.9794 -1100.1569 404381.651 337063.622 -741445.27 .323903928 .102830345 -.42673427
                   .266163E-5 -.44433E-5 .178185E-5        0.0    22.9116   2.315515   1.744863   14.67166   11.05587    .157822
                         400.    .048144    .027907    .245011    .279939   1.328045    .013657    .008088   15650.97   313.0194
                          0.0        0.0        0.0        0.0        0.0
   2000      .002   3247.9739 -4223.4568  975.48287  3247.9739 -4223.4568  975.48287 346797.217 44802.3956 -391599.61        0.0
                          0.0        0.0  3248.9051 -4224.8308 975.925697 346793.795 44807.2448 -391601.04 7473.73591 -5200.7565
                   -2272.9794 7471.43066 -5198.9396  -2272.491 301994.822 436402.009 -738396.83 .272086667 .169360316 -.44144698
                   .355456E-5 -.42157E-5 .100222E-5        0.0    22.9116   2.315515   1.744863   14.67166   11.05587    .157822
                         400.    .048144    .027907    .245011    .279939   1.328045    .013657    .008088   15650.97   313.0194
                          0.0        0.0        0.0        0.0        0.0
   2500     .0025  3677.54095 -3966.2128 288.671862 3677.54095 -3966.2128 288.671862 303112.841 110940.944 -414053.78        0.0
                          0.0        0.0 3678.62272 -3967.5249 288.902129 303108.891 110945.554 -414054.45 7646.14758  -4256.427
                   -3389.7206 7643.75375 -4254.8847 -3388.8691 192171.896 524994.729 -717166.63  .21357031 .231719774 -.44529008
                   .366262E-5 -.41572E-5 .323984E-6        0.0    22.9116   2.315515   1.744863   14.67166   11.05587    .157822
                         400.    .048144    .027907    .245011    .279939   1.328045    .013657    .008088   15650.97   313.0194
                          0.0        0.0        0.0        0.0        0.0
   3000      .003  4016.55526 -3611.3078 -405.24744 4016.55526 -3611.3078 -405.24744 251964.819 174347.759 -426312.58        0.0
                          0.0        0.0 4017.76253 -3612.5265 -405.23608 251960.441 174352.016 -426312.46 7630.28899 -3207.2904
                   -4422.9986 7627.86307 -3206.0604 -4421.8027 77617.0598 600660.337  -678277.4 .149795125  .28837355 -.43816867
                   .418999E-5  -.3696E-5  -.4374E-6        0.0    22.9116   2.315515   1.744863   14.67166   11.05587    .157822
                         400.    .048144    .027907    .245011    .279939   1.328045    .013657    .008088   15650.97   313.0194
                          0.0        0.0        0.0        0.0        0.0
   3500     .0035  4256.66762   -3167.48 -1089.1877 4256.66762   -3167.48 -1089.1877 194612.582 233461.556 -428074.14        0.0
                          0.0        0.0 4257.97343 -3168.5765 -1089.3969 194607.888 233465.353 -428073.24 7426.54997 -2079.1796
                   -5347.3703 7424.14758 -2078.2923 -5345.8553 -38848.974 661535.694 -622686.72 .082331988 .337926347 -.42025834
                   .451043E-5 -.33907E-5 -.11198E-5        0.0    22.9116   2.315515   1.744863   14.67166   11.05587    .157822
                         400.    .048144    .027907    .245011    .279939   1.328045    .013657    .008088   15650.97   313.0194
                          0.0        0.0        0.0        0.0        0.0
   4000      .004  4391.96626  -2645.658 -1746.3083 4391.96626  -2645.658 -1746.3083 132468.343 286826.752 -419295.09        0.0
                          0.0        0.0 4393.33555 -2646.6041 -1746.7315 132463.443 286829.997 -419293.44 7039.93964 -899.87261
                    -6140.067 7037.62426 -899.34975 -6138.2745 -154358.41 706121.846 -551763.44 .012840388 .379158869 -.39199926
                   .492956E-5 -.29845E-5 -.17175E-5        0.0    22.9116   2.315515   1.744863   14.67166   11.05587    .157822
                         400.    .048144    .027907    .245011    .279939   1.328045    .013657    .008088   15650.97   313.0194
                          0.0        0.0        0.0        0.0        0.0
   4500     .0045  4419.12194  -2058.692 -2360.4299 4419.12194  -2058.692 -2360.4299 67062.2918 333129.322 -400191.61        0.0
                          0.0        0.0 4420.52056 -2059.4642 -2361.0564 67057.3081 333131.936 -400189.24 6479.98475 301.592167
                   -6781.5769 6477.81395   301.7379 -6779.5519 -266067.03 733320.935 -467253.91 -.05696642 .411054756 -.35408834
                   .467875E-5  -.2056E-5 -.26228E-5        0.0    22.9116   2.315515   1.744863   14.67166   11.05587    .157822
                         400.    .048144    .027907    .245011    .279939   1.328045    .013657    .008088   15650.97   313.0194
                          0.0        0.0        0.0        0.0        0.0
   5000      .005  4337.46107 -1421.0327 -2916.4283 4337.46107 -1421.0327 -2916.4283 4.94416284 371229.143 -371234.09        0.0
                          0.0        0.0 4338.85711 -1421.6131  -2917.244 -.45661E-7  371231.06 -371231.06 5760.47026 1495.63081
                   -7256.1011 5758.49379 1495.39563 -7253.8894  -371224.2 742463.229 -371239.03 -.12537062 .432829166 -.30745855
                   .493225E-5 -.15053E-5 -.29723E-5        0.0    22.9116   2.315515   1.744863   14.67166   11.05587    .157822
                         400.    .048144    .027907    .245011    .279939   1.328045    .013657    .008088   15650.97   313.0194
                          0.0        0.0        0.0        0.0        0.0
   5500     .0055  4149.00053 -748.38447 -3400.6161 4149.00053 -748.38447 -3400.6161 -67052.527 400188.071 -333135.54        0.0
                          0.0        0.0 4150.35795 -748.75799    -3401.6 -67057.308 400189.244 -333131.94 4899.11595 2652.84197
                   -7551.9579   4897.385 2652.23159 -7549.6166  -467240.6 733323.615 -266083.02 -.19068869 .443946331 -.25325765
                   .449146E-5 -.82132E-6 -.35567E-5        0.0    22.9116   2.315515   1.744863   14.67166   11.05587    .157822
                         400.    .048144    .027907    .245011    .279939   1.328045    .013657    .008088   15650.97   313.0194
                          0.0        0.0        0.0        0.0        0.0
   6000      .006   3858.3768 -57.307955 -3801.0688  3858.3768 -57.307955 -3801.0688 -132458.94 419293.038  -286834.1        0.0
                          0.0        0.0 3859.66108  -57.46488 -3802.1962 -132463.44  419293.44   -286830. 3917.12596 3744.73132
                   -7661.8573 3915.68476 3743.76089 -7659.4457 -551751.97 706127.139 -154375.16 -.25131026 .444131512 -.19282125
                   .404746E-5 -.62058E-7 -.40284E-5        0.0    22.9116   2.315515   1.744863   14.67166   11.05587    .157822
                         400.    .048144    .027907    .245011    .279939   1.328045    .013657    .008088   15650.97   313.0194
                          0.0        0.0        0.0        0.0        0.0
   6500     .0065  3472.74596 635.180168 -4107.9261 3472.74596 635.180168 -4107.9261 -194603.77 428073.621 -233469.85        0.0
                          0.0        0.0 3473.92712 635.242989 -4109.1701 -194607.89  428073.24 -233465.35 2838.68414  4744.4131
                   -7583.0972  2837.5658  4743.1063 -7580.6721 -622677.39 661543.469 -38866.076  -.3057442 .433380942 -.12763674
                   .348421E-5 .633647E-6 -.44589E-5        0.0    22.9116   2.315515   1.744863   14.67166   11.05587    .157822
                         400.    .048144    .027907    .245011    .279939   1.328045    .013657    .008088   15650.97   313.0194
                          0.0        0.0        0.0        0.0        0.0
   7000      .007  3001.60514 1312.02775 -4313.6329 3001.60514 1312.02775 -4313.6329 -251956.82 426313.612 -174356.79        0.0
                          0.0        0.0 3002.65423 1312.30868 -4314.9629 -251960.44 426312.457 -174352.02 1690.34555  5627.2716
                   -7317.6172  1689.5774 5625.66064  -7315.238 -678270.43 600670.404 77600.0278 -.35264966 .411959057 -.05930939
                   .307679E-5 .133281E-5 -.46371E-5        0.0    22.9116   2.315515   1.744863   14.67166   11.05587    .157822
                         400.    .048144    .027907    .245011    .279939   1.328045    .013657    .008088   15650.97   313.0194
                          0.0        0.0        0.0        0.0        0.0
   7500     .0075  2456.55466 1956.56896 -4413.1236 2456.55466 1956.56896 -4413.1236 -303105.85 414056.343  -110950.5        0.0
                          0.0        0.0 2457.44493 1957.06146 -4414.5064 -303108.89 414054.446 -110945.55 500.383462 6371.56785
                   -6871.9513 499.985698 6369.69258 -6869.6783 -717162.19 525006.839  192155.35 -.39087205 .380393547 .010478501
                   .238187E-5 .208245E-5 -.46915E-5        0.0    22.9116   2.315515   1.744863   14.67166   11.05587    .157822
                         400.    .048144    .027907    .245011    .279939   1.328045    .013657    .008088   15650.97   313.0194
                          0.0        0.0        0.0        0.0        0.0
   8000      .008  1851.01678 2552.93233 -4403.9491 1851.01678 2552.93233 -4403.9491 -346791.41 391603.636 -44812.229        0.0
                          0.0        0.0 1851.72649 2553.62422 -4405.3507  -346793.8  391601.04 -44807.245 -701.89773 6958.97493
                   -6257.0772 -701.91555 6956.88144 -6254.9659 -738395.04 436415.865 301979.178 -.41946928 .339461196 .080008087
                   .186676E-5 .275103E-5  -.4618E-5        0.0    22.9116   2.315515   1.744863   14.67166   11.05587    .157822
                         400.    .048144    .027907    .245011    .279939   1.328045    .013657    .008088   15650.97   313.0194
                          0.0        0.0        0.0        0.0        0.0
   8500     .0085  1199.89812 3086.43539 -4286.3335 1199.89812 3086.43539 -4286.3335 -381937.81 359508.347 22429.4645        0.0
                          0.0        0.0 1200.41108 3087.30896   -4287.72 -381939.48 359505.117 22434.3679 -1886.8979 7375.02899
                   -5488.1311 -1886.5373  7372.7689 -5486.2316 -741446.16 337078.883 404367.276 -.43773782 .290170189 .147567632
                   .132864E-5 .332675E-5 -.48825E-5        0.0    22.9116   2.315515   1.744863   14.67166   11.05587    .157822
                         400.    .048144    .027907    .245011    .279939   1.328045    .013657    .008088   15650.97   313.0194
                          0.0        0.0        0.0        0.0        0.0
   9000      .009  519.235235 3543.93954 -4063.1748 519.235235 3543.93954 -4063.1748 -407679.64 318560.769 89118.8694        0.0
                          0.0        0.0 519.537885 3544.97369 -4064.5116 -407680.56 318556.985  89123.572 -3025.4358 7609.48526
                   -4584.0495 -3024.7043 7607.11432   -4582.41 -726240.41   229441.9 496798.508 -.44522863  .23373465 .211493978
                   .510422E-6 .358538E-5 -.43232E-5        0.0    22.9116   2.315515   1.744863   14.67166   11.05587    .157822
                         400.    .048144    .027907    .245011    .279939   1.328045    .013657    .008088   15650.97   313.0194
                          0.0        0.0        0.0        0.0        0.0
   9500     .0095  -174.21208 3914.17963 -3739.9676 -174.21208 3914.17963 -3739.9676 -423383.04 269769.167 153613.871        0.0
                          0.0        0.0 -174.12849 3915.34962 -3741.2211 -423383.18 269764.922 153618.258 -4089.4781 7656.57075
                   -3567.0926 -4088.3917 7654.14719 -3565.7555 -693152.21 116155.296  576996.91 -.44175548 .171543314  .27021217
                   -.16957E-6 .423166E-5 -.40906E-5        0.0    22.9116   2.315515   1.744863   14.67166   11.05587    .157822
                         400.    .048144    .027907    .245011    .279939   1.328045    .013657    .008088   15650.97   313.0194
                          0.0        0.0        0.0        0.0        0.0
  10000       .01  -863.37091  4188.0402 -3324.6693 -863.37091  4188.0402 -3324.6693 -428661.35 214334.954 214326.391        0.0
                          0.0        0.0 -863.50662 4189.31633 -3325.8097 -428660.71 214330.353 214330.352  -5052.823 7515.12603
                   -2462.3031 -5051.4111 7512.70949 -2461.2984  -642996.3 8.56342798 642987.736 -.42740527 .105128225  .32227705
                   -.87272E-6 .448779E-5 -.36149E-5        0.0    22.9116   2.315515   1.744863   14.67166   11.05587    .157822
                         400.    .048144    .027907    .245011    .279939   1.328045    .013657    .008088   15650.97   313.0194
                          0.0        0.0        0.0        0.0        0.0
  10500     .0105  -1531.2703 4358.77715 -2827.5068 -1531.2703 4358.77715 -2827.5068 -423384.59 153623.104 269761.484        0.0
                          0.0        0.0 -1531.6224 4360.12816 -2828.5058 -423383.18 153618.258 269764.922 -5891.7505 7188.63397
                   -1296.8834 -5890.0475 7186.28397 -1296.2365 -577007.69 -116138.38 693146.071 -.40253094  .03612453 .366406411
                   -.15707E-5 .477128E-5  -.2746E-5        0.0    22.9116   2.315515   1.744863   14.67166   11.05587    .157822
                         400.    .048144    .027907    .245011    .279939   1.328045    .013657    .008088   15650.97   313.0194
                          0.0        0.0        0.0        0.0        0.0
  11000      .011  -2161.4653 4422.18679 -2260.7215 -2161.4653 4422.18679 -2260.7215 -407682.69 89128.5405 318554.152        0.0
                          0.0        0.0 -2162.0267 4423.58031 -2261.5537 -407680.56  89123.572 318556.985  -6585.607 6685.13397
                   -99.526988 -6583.6521 6682.90826 -99.256152 -496811.23 -229425.61 726236.844 -.36774485 -.03376872  .40151357
                   -.24428E-5 .418118E-5 -.21933E-5        0.0    22.9116   2.315515   1.744863   14.67166   11.05587    .157822
                         400.    .048144    .027907    .245011    .279939   1.328045    .013657    .008088   15650.97   313.0194
                          0.0        0.0        0.0        0.0        0.0
  11500     .0115  -2738.4374 4376.70725 -1638.2698 -2738.4374 4376.70725 -1638.2698  -381942.3 22439.3391 359502.961        0.0
                          0.0        0.0 -2739.1922 4378.10791 -1638.9157 -381939.48 22434.3679 359505.117 -7117.3001 6017.02362
                   1100.27647 -7115.1447  6014.9771 1100.16756 -404381.64 -337063.62 741445.262 -.32390367 -.10283047 .426734138
                   -.27806E-5 .449808E-5 -.17176E-5        0.0    22.9116   2.315515   1.744863   14.67166   11.05587    .157822
                         400.    .048144    .027907    .245011    .279939   1.328045    .013657    .008088   15650.97   313.0194
                          0.0        0.0        0.0        0.0        0.0
  12000      .012  -3247.9808 4223.45903 -975.47822 -3247.9808 4223.45903 -975.47822 -346797.22 -44802.395 391599.614        0.0
                          0.0        0.0 -3248.9101 4224.83211   -975.922  -346793.8 -44807.245  391601.04 -7473.7422 5200.75411
                   2272.98811 -7471.4398 5198.93725 2272.50258 -301994.83 -436402.01 738396.834 -.27208692 -.16936019 .441447107
                   -.33523E-5 .411108E-5  -.9861E-6        0.0    22.9116   2.315515   1.744863   14.67166   11.05587    .157822
                         400.    .048144    .027907    .245011    .279939   1.328045    .013657    .008088   15650.97   313.0194
                          0.0        0.0        0.0        0.0        0.0
  12500     .0125  -3677.5474 3966.21482 -288.66746 -3677.5474 3966.21482 -288.66746 -303112.84 -110940.94 414053.784        0.0
                          0.0        0.0 -3678.6303 3967.52754 -288.89724 -303108.89 -110945.55 414054.446 -7646.1578 4256.42478
                   3389.73305 -7643.7622 4254.88228  3388.8799 -192171.89 -524994.73 717166.624  -.2135707 -.23171958 .445290281
                   -.38921E-5 .404801E-5 -.32637E-6        0.0    22.9116   2.315515   1.744863   14.67166   11.05587    .157822
                         400.    .048144    .027907    .245011    .279939   1.328045    .013657    .008088   15650.97   313.0194
                          0.0        0.0        0.0        0.0        0.0
  13000      .013  -4016.5614 3611.30972 405.251645 -4016.5614 3611.30972 405.251645 -251964.82 -174347.76 426312.577        0.0
                          0.0        0.0 -4017.7699 3612.52904 405.240913 -251960.44 -174352.02 426312.457  -7630.299 3207.28812
                   4423.01086 -7627.8711 3206.05808 4421.81301 -77617.057 -600660.34 678277.394 -.14979508 -.28837357  .43816865
                   -.41427E-5 .367184E-5 .414206E-6        0.0    22.9116   2.315515   1.744863   14.67166   11.05587    .157822
                         400.    .048144    .027907    .245011    .279939   1.328045    .013657    .008088   15650.97   313.0194
                          0.0        0.0        0.0        0.0        0.0
  13500     .0135  -4256.6749 3167.48246 1089.19246 -4256.6749 3167.48246 1089.19246 -194612.58 -233461.55 428074.139        0.0
                          0.0        0.0 -4257.9789  3168.5781 1089.40075 -194607.89 -233465.35  428073.24  -7426.557 2079.17735
                    5347.3796 -7424.1574 2078.29001 5345.86737 38848.9707 -661535.69 622686.723 -.08233167  -.3379265 .420258175
                    -.4703E-5 .348454E-5 .121852E-5        0.0    22.9116   2.315515   1.744863   14.67166   11.05587    .157822
                         400.    .048144    .027907    .245011    .279939   1.328045    .013657    .008088   15650.97   313.0194
                          0.0        0.0        0.0        0.0        0.0
  14000      .014  -4391.9728 2645.66009 1746.31271 -4391.9728 2645.66009 1746.31271 -132468.34 -286826.75 419295.095        0.0
                          0.0        0.0  -4393.342 2646.60615 1746.73586 -132463.44   -286830.  419293.44 -7039.9482 899.870289
                   6140.07787 -7037.6329  899.34738 6138.28552 154358.408 -706121.85 551763.438 -.01284082 -.37915865 .391999472
                   -.46714E-5  .28538E-5 .181748E-5        0.0    22.9116   2.315515   1.744863   14.67166   11.05587    .157822
                         400.    .048144    .027907    .245011    .279939   1.328045    .013657    .008088   15650.97   313.0194
                          0.0        0.0        0.0        0.0        0.0
  14500     .0145  -4419.1275 2058.69368 2360.43381 -4419.1275 2058.69368 2360.43381  -67062.29 -333129.32 400191.613        0.0
                          0.0        0.0 -4420.5273 2059.46636 2361.06093 -67057.308 -333131.94 400189.244 -6479.9936 -301.59457
                   6781.58822 -6477.8212 -301.74013 6779.56129 266067.032 -733320.94 467253.903 .056966616 -.41105486  .35408824
                   -.47583E-5 .210055E-5 .265799E-5        0.0    22.9116   2.315515   1.744863   14.67166   11.05587    .157822
                         400.    .048144    .027907    .245011    .279939   1.328045    .013657    .008088   15650.97   313.0194
                          0.0        0.0        0.0        0.0        0.0
  % % % % % %   Suspended simulation;  plot data space exhausted;  SPY SPACE is required.   LIMBUF =  840000.
  % % % % % %   Suspended simulation;  plot data space exhausted;  SPY SPACE is required.   LIMBUF =  840000.
  +++  Time-sharing disabled.   Send  user-keyed interrupt to silence alarm.
   Current values.  INDBUF  INDBEG  LIMBUF  MFLUSH  NUMDCD  KCARD1  KCARD2
                    839994      50  840000    1000     230       1     231
Plot timespan now in memory (in sec) = 0.00000000E+00   1.49990000E-02
   ++++  Begin plot-data copy from memory to disk.   MFLUSH, INDBUF, N4, Tbeg,  Tend = 1001  839994       1  -1.00000E+00
1.00000E+19
  15000      .015  -4337.4688 1421.03549 2916.43331 -4337.4688 1421.03549 2916.43331 -4.9446737 -371229.14 371234.087        0.0
                          0.0        0.0 -4338.8638 1421.61534 2917.24845 -.61533E-6 -371231.06  371231.06 -5760.4791 -1495.6331
                   7256.11225 -5758.5043 -1495.3978 7253.90211 371224.198 -742463.23 371239.032 .125370944 -.43282932 .307458378
                   -.41508E-5 .156498E-5  .30403E-5        0.0    22.9116   2.315515   1.744863   14.67166   11.05587    .157822
                         400.    .048144    .027907    .245011    .279939   1.328045    .013657    .008088   15650.97   313.0194
                          0.0        0.0        0.0        0.0        0.0
  15500     .0155  -4149.0069 748.386505  3400.6204 -4149.0069 748.386505  3400.6204 67052.5244 -400188.07 333135.545        0.0
                          0.0        0.0 -4150.3641 748.759953 3401.60417 67057.3081 -400189.24 333131.936 -4899.1241 -2652.8442
                    7551.9683 -4897.3934 -2652.2339  7549.6273 467240.594 -733323.61 266083.021 .190688338 -.44394616 .253257819
                   -.43179E-5   .7313E-6  .34729E-5        0.0    22.9116   2.315515   1.744863   14.67166   11.05587    .157822
                         400.    .048144    .027907    .245011    .279939   1.328045    .013657    .008088   15650.97   313.0194
                          0.0        0.0        0.0        0.0        0.0
  16000      .016  -3858.3826 57.3097208 3801.07291 -3858.3826 57.3097208 3801.07291 132458.939 -419293.04   286834.1        0.0
                          0.0        0.0 -3859.6679 57.4671164 3802.20078 132463.443 -419293.44 286829.997  -3917.135 -3744.7337
                   7661.86868 -3915.6924 -3743.7632 7659.45554 551751.978 -706127.14 154375.161 .251310266 -.44413152 .192821249
                   -.41254E-5 .587413E-7 .406639E-5        0.0    22.9116   2.315515   1.744863   14.67166   11.05587    .157822
                         400.    .048144    .027907    .245011    .279939   1.328045    .013657    .008088   15650.97   313.0194
                          0.0        0.0        0.0        0.0        0.0
  16500     .0165  -3472.7523 -635.17816 4107.93049 -3472.7523 -635.17816 4107.93049 194603.773 -428073.62 233469.848        0.0
                          0.0        0.0 -3473.9334 -635.24098 4109.17438 194607.888 -428073.24 233465.353 -2838.6924 -4744.4154
                   7583.10777 -2837.5742 -4743.1086 7580.68282 622677.394 -661543.47 38866.0754 .305744367 -.43338102 .127636651
                   -.34774E-5 -.64205E-6  .44608E-5        0.0    22.9116   2.315515   1.744863   14.67166   11.05587    .157822
                         400.    .048144    .027907    .245011    .279939   1.328045    .013657    .008088   15650.97   313.0194
                          0.0        0.0        0.0        0.0        0.0
  17000      .017  -3001.6119 -1312.0255 4313.63744 -3001.6119 -1312.0255 4313.63744 251956.817 -426313.61 174356.793        0.0
                          0.0        0.0 -3002.6607 -1312.3065 4314.96722 251960.441 -426312.46 174352.016 -1690.3541 -5627.2738
                    7317.6279 -1689.5864  -5625.663 7315.24935 678270.427  -600670.4 -77600.024  .35264977 -.41195911 .059309343
                   -.31575E-5 -.12891E-5 .467384E-5        0.0    22.9116   2.315515   1.744863   14.67166   11.05587    .157822
                         400.    .048144    .027907    .245011    .279939   1.328045    .013657    .008088   15650.97   313.0194
                          0.0        0.0        0.0        0.0        0.0
  17500     .0175  -2456.5615 -1956.5667 4413.12815 -2456.5615 -1956.5667 4413.12815 303105.848 -414056.34 110950.496        0.0
                          0.0        0.0 -2457.4519 -1957.0591 4414.51098 303108.891 -414054.45 110945.554 -500.39273 -6371.5701
                   6871.96283 -499.99484 -6369.6948 6869.68965 717162.191 -525006.84 -192155.35 .390871785 -.38039342 -.01047837
                   -.27126E-5 -.21447E-5  .46296E-5        0.0    22.9116   2.315515   1.744863   14.67166   11.05587    .157822
                         400.    .048144    .027907    .245011    .279939   1.328045    .013657    .008088   15650.97   313.0194
                          0.0        0.0        0.0        0.0        0.0
  18000      .018  -1851.0225 -2552.9306 4403.95313 -1851.0225 -2552.9306 4403.95313 346791.407 -391603.64 44812.2286        0.0
                          0.0        0.0 -1851.7326 -2553.6223  4405.3549 346793.795 -391601.04 44807.2448 701.889785 -6958.9772
                   6257.08746 701.908073 -6956.8837 6254.97566 738395.043 -436415.86 -301979.18 .419469399 -.33946125 -.08000815
                   -.19049E-5 -.27368E-5 .464218E-5        0.0    22.9116   2.315515   1.744863   14.67166   11.05587    .157822
                         400.    .048144    .027907    .245011    .279939   1.328045    .013657    .008088   15650.97   313.0194
                          0.0        0.0        0.0        0.0        0.0
  18500     .0185  -1199.9047 -3086.4332 4286.33796 -1199.9047 -3086.4332 4286.33796 381937.811 -359508.35 -22429.464        0.0
                          0.0        0.0 -1200.4172  -3087.307 4287.72427 381939.485 -359505.12 -22434.368 1886.88978 -7375.0313
                   5488.14151 1886.52849 -7372.7712  5486.2427 741446.157 -337078.88 -404367.27 .437738045  -.2901703 -.14756774
                   -.11851E-5 -.32815E-5 .492088E-5        0.0    22.9116   2.315515   1.744863   14.67166   11.05587    .157822
                         400.    .048144    .027907    .245011    .279939   1.328045    .013657    .008088   15650.97   313.0194
                          0.0        0.0        0.0        0.0        0.0
  19000      .019  -519.24202 -3543.9372 4063.17926 -519.24202 -3543.9372 4063.17926 407679.638 -318560.77 -89118.869        0.0
                          0.0        0.0 -519.54408 -3544.9718 4064.51583 407680.557 -318556.98 -89123.572 3025.42768 -7609.4876
                   4584.05991 3024.69521 -7607.1165 4582.42128 726240.407  -229441.9 -496798.51 .445228401 -.23373454 -.21149386
                   -.58518E-6   -.366E-5 .424543E-5        0.0    22.9116   2.315515   1.744863   14.67166   11.05587    .157822
                         400.    .048144    .027907    .245011    .279939   1.328045    .013657    .008088   15650.97   313.0194
                          0.0        0.0        0.0        0.0        0.0
  19500     .0195  174.205783 -3914.1776  3739.9718 174.205783 -3914.1776  3739.9718  423383.04 -269769.17 -153613.87        0.0
                          0.0        0.0 174.121385 -3915.3472 3741.22581  423383.18 -269764.92 -153618.26 4089.46858  -7656.573
                   3567.10442 4088.38336 -7654.1494 3565.76601 693152.208  -116155.3 -576996.91 .441755587 -.17154336 -.27021222
                   .186683E-6 -.42015E-5 .412832E-5        0.0    22.9116   2.315515   1.744863   14.67166   11.05587    .157822
                         400.    .048144    .027907    .245011    .279939   1.328045    .013657    .008088   15650.97   313.0194
                          0.0        0.0        0.0        0.0        0.0
  20000       .02  863.364604 -4188.0382 3324.67359 863.364604 -4188.0382 3324.67359 428661.344 -214334.95 -214326.39        0.0
                          0.0        0.0 863.500287 -4189.3143 3325.81399 428660.705 -214330.35 -214330.35 5052.81457 -7515.1283
                    2462.3137 5051.40279 -7512.7118 2461.30898 642996.298 -8.5634327 -642987.74  .42740532 -.10512824 -.32227708
                   .960628E-6 -.44786E-5 .363146E-5        0.0    22.9116   2.315515   1.744863   14.67166   11.05587    .157822
                         400.    .048144    .027907    .245011    .279939   1.328045    .013657    .008088   15650.97   313.0194
                          0.0        0.0        0.0        0.0        0.0
  20500     .0205  1531.26409 -4358.7752 2827.51109 1531.26409 -4358.7752 2827.51109 423384.587  -153623.1 -269761.48        0.0
                          0.0        0.0  1531.6168 -4360.1265 2828.50973  423383.18 -153618.26 -269764.92 5891.74332 -7188.6363
                   1296.89294 5890.03927 -7186.2863   1296.247  577007.69  116138.38 -693146.07 .402530867 -.03612449 -.36640637
                   .157416E-5 -.47733E-5 .274414E-5        0.0    22.9116   2.315515   1.744863   14.67166   11.05587    .157822
                         400.    .048144    .027907    .245011    .279939   1.328045    .013657    .008088   15650.97   313.0194
                          0.0        0.0        0.0        0.0        0.0
  21000      .021  2161.45916 -4422.1849  2260.7257 2161.45916 -4422.1849  2260.7257 407682.694 -89128.541 -318554.15        0.0
                          0.0        0.0 2162.01949 -4423.5778 2261.55833 407680.557 -89123.572 -318556.98 6585.59731 -6685.1361
                    99.538838 6583.64401 -6682.9106 99.2665381 496811.235 229425.611 -726236.85 .367744836 .033768729 -.40151357
                   .203852E-5 -.42079E-5 .216928E-5        0.0    22.9116   2.315515   1.744863   14.67166   11.05587    .157822
[...]
                         400.    .048144    .027907    .245011    .279939   1.328045    .013657    .008088   15650.97   313.0194
                          0.0        0.0        0.0        0.0        0.0
 113000      .113  -253861.55 -171430.58 425292.128 -253861.55 -171430.58 425292.128 -253861.55 -171430.58 425292.128        0.0
                          0.0        0.0 -251741.09 -172857.26 424598.345 -251960.44 -174352.02 426312.457 -78883.829  -597455.6
                   676339.432 -82430.966 -596722.71 679153.675 -82430.966 -596722.71 679153.675 43.2179786 -41.519593  -1.698385
                   -.27785E-3  -.1739E-3 .422597E-3        0.0    22.9116   2.315515   1.744863   14.67166   11.05587    .157822
                         400.    .048144    .027907    .245011    .279939   1.328045    .013657    .008088   15650.97   313.0194
                          0.0        0.0        0.0        0.0        0.0
 113500     .1135  -196434.99 -234789.26 431224.248 -196434.99 -234789.26 431224.248 -196434.99 -234789.26 431224.248        0.0
                          0.0        0.0 -197732.84 -233902.14 431634.984 -194607.89 -233465.35  428073.24 36169.2973 -665537.12
                   629367.827 38354.2671 -666013.51 627659.238 38354.2673 -666013.51 627659.238 41.7151795  -37.84152 -3.8736588
                   -.22189E-3 -.24126E-3 .463188E-3        0.0    22.9116   2.315515   1.744863   14.67166   11.05587    .157822
                         400.    .048144    .027907    .245011    .279939   1.328045    .013657    .008088   15650.97   313.0194
                          0.0        0.0        0.0        0.0        0.0
 114000      .114  -131815.27 -287388.51 419203.786 -131815.27 -287388.51 419203.786 -131815.27 -287388.51 419203.786        0.0
                          0.0        0.0 -131662.46 -288249.98 419912.435 -132463.44   -286830.  419293.44 156587.521 -708162.41
                   551574.893 155573.237  -706592.3  551019.06 155573.237  -706592.3  551019.06 28.3487551 -26.660935 -1.6878189
                    -.1452E-3  -.3077E-3 .423789E-3        0.0    22.9116   2.315515   1.744863   14.67166   11.05587    .157822
                         400.    .048144    .027907    .245011    .279939   1.328045    .013657    .008088   15650.97   313.0194
                          0.0        0.0        0.0        0.0        0.0
 114500     .1145  -65211.679 -333183.81 398395.494 -65211.679 -333183.81 398395.494 -65211.679 -333183.81 398395.494        0.0
                          0.0        0.0 -65514.934 -332452.72 397967.655 -67057.308 -333131.94 400189.244 266937.786 -730420.38
                   463482.589 267972.135 -731579.31 463607.174 267972.135 -731579.31 463607.173 46.5079021 -27.999466 -18.508436
                   -.68306E-4  -.3828E-3 .414759E-3        0.0    22.9116   2.315515   1.744863   14.67166   11.05587    .157822
                         400.    .048144    .027907    .245011    .279939   1.328045    .013657    .008088   15650.97   313.0194
                          0.0        0.0        0.0        0.0        0.0
 115000      .115  -2812.2496  -371048.2 373860.453 -2812.2496  -371048.2 373860.453 -2812.2495  -371048.2 373860.453        0.0
                          0.0        0.0  -2244.926 -371546.71 373791.639 .127058E-4 -371231.06  371231.06 369301.787 -745338.35
                   376036.565 368235.954 -744908.66 376672.703 368235.954 -744908.66 376672.703 50.3782865 -24.739445 -25.638841
                   -.28842E-5 -.36434E-3 .395447E-3        0.0    22.9116   2.315515   1.744863   14.67166   11.05587    .157822
                         400.    .048144    .027907    .245011    .279939   1.328045    .013657    .008088   15650.97   313.0194
                          0.0        0.0        0.0        0.0        0.0
 115500     .1155  67374.2194 -401627.11 334252.891 67374.2194 -401627.11 334252.891 67374.2195 -401627.11 334252.891        0.0
                          0.0        0.0 67408.5466 -402387.96  334979.41 67057.3081 -400189.24 333131.936 469796.503 -737367.37
                   267570.864  469001.33   -735880. 266878.671  469001.33   -735880. 266878.671 31.2576606 -11.076574 -20.181086
                   .669096E-4 -.44115E-3 .316024E-3        0.0    22.9116   2.315515   1.744863   14.67166   11.05587    .157822
                         400.    .048144    .027907    .245011    .279939   1.328045    .013657    .008088   15650.97   313.0194
                          0.0        0.0        0.0        0.0        0.0
 116000      .116   134431.67  -418872.6 284440.928  134431.67  -418872.6 284440.928  134431.67  -418872.6 284440.928        0.0
                          0.0        0.0 133198.742 -417507.99  284309.25 132463.443 -419293.44 286829.997 550706.734 -701817.24
                   151110.508 553304.269 -703313.53 150009.258 553304.269 -703313.53 150009.257 39.9639783  -8.414686 -31.549292
                   .150865E-3 -.45521E-3 .304312E-3        0.0    22.9116   2.315515   1.744863   14.67166   11.05587    .157822
                         400.    .048144    .027907    .245011    .279939   1.328045    .013657    .008088   15650.97   313.0194
                          0.0        0.0        0.0        0.0        0.0
 116500     .1165  193756.874  -428880.5 235123.629 193756.874  -428880.5 235123.629 193756.874  -428880.5 235123.628        0.0
                          0.0        0.0 195567.455  -430458.2 234890.744 194607.888 -428073.24 233465.353 626025.654 -665348.94
                   39323.2887 622637.376 -664004.13 41366.7547 622637.376 -664004.13 41366.7545  48.089196 -6.4710576 -41.618138
                   .209579E-3 -.46912E-3 .259548E-3        0.0    22.9116   2.315515   1.744863   14.67166   11.05587    .157822
                         400.    .048144    .027907    .245011    .279939   1.328045    .013657    .008088   15650.97   313.0194
                          0.0        0.0        0.0        0.0        0.0
 117000      .117   250942.81 -427283.38 176340.571  250942.81 -427283.38 176340.571  250942.81 -427283.38 176340.571        0.0
                          0.0        0.0 249894.847 -426629.18 176734.338 251960.441 -426312.46 174352.016 676524.032 -603363.52
                   -73160.508 678226.191 -603623.95 -74602.239 678226.191 -603623.95 -74602.239 26.9434851 7.19193744 -34.135423
                   .276913E-3 -.47585E-3 .169858E-3        0.0    22.9116   2.315515   1.744863   14.67166   11.05587    .157822
                         400.    .048144    .027907    .245011    .279939   1.328045    .013657    .008088   15650.97   313.0194
                          0.0        0.0        0.0        0.0        0.0
 117500     .1175  304404.086 -412967.31 108563.227 304404.086 -412967.31 108563.227 304404.086 -412967.31 108563.227        0.0
                          0.0        0.0 304810.584 -413488.89 108678.301 303108.891 -414054.45 110945.554 718299.469 -522167.19
                   -196132.28 717371.399 -521530.54 -195840.86 717371.399 -521530.54 -195840.86 24.9454434 13.0784156 -38.023859
                   .329033E-3 -.43125E-3 .116773E-3        0.0    22.9116   2.315515   1.744863   14.67166   11.05587    .157822
                         400.    .048144    .027907    .245011    .279939   1.328045    .013657    .008088   15650.97   313.0194
                          0.0        0.0        0.0        0.0        0.0
 118000      .118  348738.054 -393845.85 45107.7952 348738.054 -393845.85 45107.7952 348738.054 -393845.85 45107.7951        0.0
                          0.0        0.0 348732.359 -393627.38 44895.0223 346793.795 -391601.04 44807.2447 742359.741  -438522.4
                   -303837.34 742583.903 -438953.64 -303630.26 742583.903 -438953.64 -303630.26   35.74358 12.6588194   -48.4024
                     .3869E-3 -.40849E-3 .506304E-4        0.0    22.9116   2.315515   1.744863   14.67166   11.05587    .157822
                         400.    .048144    .027907    .245011    .279939   1.328045    .013657    .008088   15650.97   313.0194
                          0.0        0.0        0.0        0.0        0.0
 118500     .1185  379673.186 -359645.31 -20027.878 379673.186 -359645.31 -20027.878 379673.186 -359645.31 -20027.878        0.0
                          0.0        0.0 379868.867 -359880.77 -19988.093 381939.485 -359505.12 -22434.368 739749.641 -339892.68
                   -399856.96 739318.495 -339617.43 -399701.06 739318.495 -339617.43 -399701.06 15.8117722 24.6886762 -40.500449
                   .380735E-3 -.37575E-3 -.19519E-4        0.0    22.9116   2.315515   1.744863   14.67166   11.05587    .157822
                         400.    .048144    .027907    .245011    .279939   1.328045    .013657    .008088   15650.97   313.0194
                          0.0        0.0        0.0        0.0        0.0
 119000      .119    408087.3 -317097.37 -90989.931   408087.3 -317097.37 -90989.931   408087.3 -317097.37 -90989.931        0.0
                          0.0        0.0 408623.086 -317779.77  -90843.32 407680.557 -318556.98 -89123.572 726402.851 -226936.45
                   -499466.41  725184.67 -226107.44 -499077.23  725184.67 -226107.44 -499077.23 5.32303537 31.0337671 -36.356803
                   .424565E-3 -.31559E-3 -.94444E-4        0.0    22.9116   2.315515   1.744863   14.67166   11.05587    .157822
                         400.    .048144    .027907    .245011    .279939   1.328045    .013657    .008088   15650.97   313.0194
                          0.0        0.0        0.0        0.0        0.0
 119500     .1195  426980.264 -272294.55 -154685.72 426980.264 -272294.55 -154685.72 426980.264 -272294.55 -154685.72        0.0
                          0.0        0.0 426008.734 -271189.89 -154818.85  423383.18 -269764.92 -153618.26 697198.622 -116371.04
                   -580827.58 699274.812 -117608.83 -581665.98 699274.812 -117608.83 -581665.98 15.2624285 29.4725398 -44.734969
                   .472159E-3 -.30638E-3 -.16581E-3        0.0    22.9116   2.315515   1.744863   14.67166   11.05587    .157822
                         400.    .048144    .027907    .245011    .279939   1.328045    .013657    .008088   15650.97   313.0194
                          0.0        0.0        0.0        0.0        0.0
  % % % % % %   Suspended simulation;  plot data space exhausted;  SPY SPACE is required.   LIMBUF =  840000.
  % % % % % %   Suspended simulation;  plot data space exhausted;  SPY SPACE is required.   LIMBUF =  840000.
  +++  Time-sharing disabled.   Send  user-keyed interrupt to silence alarm.
   Current values.  INDBUF  INDBEG  LIMBUF  MFLUSH  NUMDCD  KCARD1  KCARD2
                    839994      50  840000    1007     230       1     231
Plot timespan now in memory (in sec) = 1.04985997E-01   1.19985000E-01
   ++++  Begin plot-data copy from memory to disk.   MFLUSH, INDBUF, N4, Tbeg,  Tend = 1008  839994       1  -1.00000E+00
1.00000E+19
 120000       .12  426823.371 -214788.81 -212034.56 426823.371 -214788.81 -212034.56 426823.371 -214788.81 -212034.56        0.0
                          0.0        0.0 428125.416 -216011.79 -212113.63 428660.705 -214330.35 -214330.35 644137.204 -3898.1611
                   -640239.04 641612.186  -2754.258 -638857.93 641612.186 -2754.2578 -638857.93 1.37707622 36.4091441 -37.786221
                   .474511E-3 -.21083E-3 -.23451E-3        0.0    22.9116   2.315515   1.744863   14.67166   11.05587    .157822
                         400.    .048144    .027907    .245011    .279939   1.328045    .013657    .008088   15650.97   313.0194
                          0.0        0.0        0.0        0.0        0.0

Extrema of output variables follow.   Order and column positioning are the same as for the preceding time-step loop output.
Variable maxima :  443648.207  436505.95 433206.115 443648.207  436505.95 433206.115 443648.207 473725.986 433206.115        0.0
                          0.0        0.0 446947.947 447061.584 435830.157 428660.705 428660.703 428660.703   774411.4 751213.346
                   767924.954 772718.913 749609.822 762429.493 772718.913 749609.822 762429.493 86.8156619 539.317636 64.1696859
                   .505147E-3 .495904E-3 .498086E-3        0.0    22.9116   2.315515   1.744863   14.67166   11.05587    .157822
                         400.    .048144    .027907    .245011    .279939   1.328045    .013657    .008088   15650.97   313.0194
                          0.0        0.0        0.0        0.0        0.0
Times of maxima :     .060298    .066575    .073086    .060298    .066575    .073086    .060298    .048361    .073086        0.0
                          0.0        0.0    .060314    .048581    .073014        0.0    .006667    .113333    .058246    .064761
                      .071543    .058168    .064768    .071559    .058168    .064768    .071559    .055836    .048305     .06849
                      .060391    .106912    .073733        0.0        0.0        0.0        0.0        0.0        0.0        0.0
                          0.0        0.0        0.0        0.0        0.0        0.0        0.0        0.0        0.0        0.0
                          0.0        0.0        0.0        0.0        0.0
Variable minima :  -450782.91 -440294.75  -436486.1 -450782.91 -440294.75  -436486.1 -478396.49 -440294.75  -436486.1        0.0
                          0.0        0.0 -456953.79 -441370.26 -439757.04 -428660.71  -428660.7  -428660.7 -903899.18 -750713.66
                   -770884.13 -874073.26  -750427.3 -768290.64 -942181.31  -750427.3 -768290.64 -531.98769 -111.09885 -69.657116
                   -.50144E-3 -.49969E-3 -.50175E-3        0.0    22.9116   2.315515   1.744863   14.67166   11.05587    .157822
                         400.    .048144    .027907    .245011    .279939   1.328045    .013657    .008088   15650.97   313.0194
                          0.0        0.0        0.0        0.0        0.0
Times of minima :       .0496     .05668    .063279      .0496     .05668    .063279    .048498     .05668    .063279        0.0
                          0.0        0.0    .048584    .056759    .063252        .01    .016667    .103333    .048583    .075071
                      .061746    .048658     .07515    .061791    .048497     .07515    .061791    .048311    .048702    .058725
                      .109845    .056802    .063186        0.0        0.0        0.0        0.0        0.0        0.0        0.0
                          0.0        0.0        0.0        0.0        0.0        0.0        0.0        0.0        0.0        0.0
                          0.0        0.0        0.0        0.0        0.0

Blank card terminating all plot cards.            |BLANK PLOT

Memory storage figures for the preceding, now-completed data case.  -------------------------------  Present   Program
A value of  "-9999"  indicates that no figure is available.         28-Feb-22  21:16:45              figure     limit  (name)
     Size List 1.   Number of electric network nodes.                                                   37      6000  (LBUS)
     Size List 2.   Number of electric network branches.                                                39     10000  (LBRNCH)
     Size List 3.   Number of data values in R, L, C tables.                                            45    192000  (LDATA)
     Size List 4.   Number of electric network sources.                                                  3       900  (LEXCT)
     Size List 5.   Storage for [Y] and triangularized [Y].   No. times =    3     Factors =    66     189    420000  (LYMAT)
     Size List 6.   Number of entries in switch table.                  No. flops = 18                  21      1200  (LSWTCH)
     Size List 7.   Number of distinct ALPHANUMERIC data names plus program SPY variables.              25     15000  (LSIZE7)
     Size List 8.   History points of distributed lines.                                               297    120000  (LPAST)
     Size List 9.   Number of nonlinear elements.                                                        0      2250  (LNONL)
     Size List 10.  Points of nonlinear characteristics.                                                 0      3800  (LCHAR)
     Size List 11.  Number of Type-59 S.M. outputs.                                                      0       720  (LSMOUT)
     Size List 12.  Total number of EMTP output variables.                                              55      2000  (LSIZ12)
     Size List 13.  Working space for batch/SPY plotting.                                            -9999     72800  (LSIZ13)
     Size List 14.  S.M./U.M. connections to TACS.                                                   -9999       510  (LBSTAC)
     Size List 15.  Character storage in bytes for MODELS.                                            3299     90000  (LCTACS)
     Size List 16.  Total number of Type-59 S.M. masses.                                                 0       800  (LIMASS)
     Size List 17.  Number of Type-59 Synchronous machines.                                              0        90  (LSYN)
     Size List 18.  Branch and switch power/energy outputs.                                              0       254  (MAXPE)
     Size List 19.  Total floating-point TACS table space.                                              23    120000  (LTACST)
     Size List 20.  Non-copied recursive convolution data.                                               0    100000  (LFSEM)
     Size List 21.  Total modal/phase [T] matrix storage.                                                9      3000  (LFD)
     Size List 22.  Total recursive convolution history.                                                 0     15000  (LHIST)
     Size List 23.  Giant vectors for renumbering, phasors;  also extrema accumulation.                  93    192000  (LSIZ23)
     Size List 24.  Peak phases of compensation for data.                                                0       120  (LCOMP)
     Size List 25.  Total table space for all U.M usage.                                             -9999     45000  (LSPCUM)
     Size List 26.  Square of max number of coupled phases.                                              9    260000  (LSIZ26)
     Size List 27.  Maximum number of MODELS top variables.                                             44       600  (LSIZ27)
     Size List 28.  MODELS.  Total work space is divided into INTEGER and REAL.  1st, REAL:           1780    210000  (LRTACS)
                             Second  and last,  statistics for INTEGER work space.                    6838         0  (LITACS)
     Size List 29.  RAM disk used by "TAPSAV" table saving (limit is "LABCOM" size LTLABL).          -9999       600  (LSIZ29)
     Size List 30.  Taku Noda frequency-dependent circuits.                                              0        19  (LSIZ30)
Timing figures characterizing central processor (CP) solution speed.  ----------------------------   CP sec  Wait sec  Real sec
     Data input time (through blank card ending branches) ....                                       0.063     0.000     0.063
     Node renumbering and phasor solution  ....                                                      0.016     0.000     0.016
     After phasor solution, but before time-step loop  ....                                          0.000     0.000     0.000
     Integration of equations (time-step loop)  ....                                                 0.938     0.000     0.938
     Plotting or STATISTICS termination overlays ....                                                0.000     0.000     0.000
                                                                                                    ---------------------------
                                                                                          Totals      1.016     0.000     1.016

