   ---   236   cards of disk file read into card cache cells  1   onward.
 Comment card is ignored.      |C   LBUS  LBRNCH   LDATA   LEXCT   LYMAT  LSWTCH
 Limit CIDEAL cards =   200    |CARDS        200 { Limit of CIDEAL will be 2 mor
 1st card (Lists  1-10).       |    6000   10000  192000     900  420000    120
 Comment card is ignored.      |C LSMOUT  LSIZ12  LSIZ13  LBSTAC  LCTACS  LIMASS
 2nd card (Lists 11-20).       |     720    2000   72800     510   90000     80
 Comment card is ignored.      |C    LFD   LHIST  LSIZ23   NCOMP  LSPCUM  LSIZ26
 3rd card (Lists 21-30).       |    3000   15000  192000     120   45000  26000
 4th card (Lists 31-32).       |     200     300     { Optional card for Lists
 Comment card is ignored.      |C  LWORK  LMARTI
 Supplemental offsets.         |  840000     742
 <===> Done with  "/"-card sorting by data class.    Remember that the source file appears different from interpreted input data.
Alternative Transients Program (ATP),  GNU Linux or DOS.  All rights reserved by Can/Am user group of Portland, Oregon, USA.
 Date (dd-mth-yy) and time of day (hh.mm.ss) = 28-Feb-22  20:05:11   Name of disk plot file is  draw6.3\bernal\energizacion4413.pl4
Consult the 860-page ATP Rule Book of the Can/Am EMTP User Group in Portland,  Oregon, USA.  Source code date is 12 August 2008.
Total size of LABCOM tables = 10913436 INTEGER words.  31 VARDIM  List Sizes follow:  6002  10K  192K  900  420K  1200  15K
  120K  2250  3800  720  2K  72800  510  90K  800  90  254  120K  100K  3K  15K  192K  120  45K  260K  600  210K  1100  60  200
--------------------------------------------------+--------------------------------------------------------------------------------
Descriptive interpretation of input data cards.   |  Input data card images are shown below, all 80 columns, character by character
                                                  0         1         2         3         4         5         6         7         8
                                                  012345678901234567890123456789012345678901234567890123456789012345678901234567890
--------------------------------------------------+--------------------------------------------------------------------------------
Comment card.   NUMDCD = 1.                       |C data:C:\ATP\ATPDRAW6.3\BERNAL\ENERGIZACION4413.ATP
Marker card preceding new EMTP data case.         |BEGIN NEW DATA CASE
Comment card.   NUMDCD = 3.                       |C --------------------------------------------------------
Comment card.   NUMDCD = 4.                       |C Generated by ATPDRAW  febrero, lunes 28, 2022
Comment card.   NUMDCD = 5.                       |C A Bonneville Power Administration program
Comment card.   NUMDCD = 6.                       |C by H. K. Høidalen at SEfAS/NTNU - NORWAY 1994-2016
Comment card.   NUMDCD = 7.                       |C --------------------------------------------------------
Comment card.   NUMDCD = 8.                       |C  dT  >< Tmax >< Xopt >< Copt ><Epsiln>
Misc. data.     1.000E-06   1.200E-01   5.000E+01 |   1.E-6     .12     50.
Misc. data.    500    1  0  1  1  0  0  0  0  0   |     500       1       0       1       1       0       0       0       0
  ///  Warning.  Nonzero XOPT or COPT differs from the power frequency of  6.00000000E+01  Hz.   Did the user really want this?
No TACS data,  but MODELS data begins (next).     |MODELS
      Another ordinary MODELS data card.          |OUTPUT
      Another ordinary MODELS data card.          |  AnVol
      Another ordinary MODELS data card.          |  LONG
      Another ordinary MODELS data card.          |  R0F
      Another ordinary MODELS data card.          |  R1F
      Another ordinary MODELS data card.          |  X0F
      Another ordinary MODELS data card.          |  X1F
      Another ordinary MODELS data card.          |  RDIVX
      Another ordinary MODELS data card.          |  RINSER
      Another ordinary MODELS data card.          |  CLOSE1
      Another ordinary MODELS data card.          |  RPpos
      Another ordinary MODELS data card.          |  RPcero
      Another ordinary MODELS data card.          |  LPpos
      Another ordinary MODELS data card.          |  LPcero
      Another ordinary MODELS data card.          |  CPpos
      Another ordinary MODELS data card.          |  CPcero
      Another ordinary MODELS data card.          |  Xp
      Another ordinary MODELS data card.          |  CR
      Another ordinary MODELS data card.          |  SIMET
      Another ordinary MODELS data card.          |  ENC1
      Another ordinary MODELS data card.          |  ENC2
      Another ordinary MODELS data card.          |  ENC1AS
      Another ordinary MODELS data card.          |  ENC2AS
      Another ordinary MODELS data card.          |MODEL DEFAULT
      Another ordinary MODELS data card.          |DATA AnVol,LONG,R0F,R1F,X0F,X1F,RDIVX,RINSER,CLOSE1,RPpos,RPcero,LPpos,LPcero
      Another ordinary MODELS data card.          |OUTPUT o1,o2,o3, o4, o5, o6, o7, o8, o9, o10, o11, o12, o13
      Another ordinary MODELS data card.          |VAR o1,o2,o3, o4, o5, o6, o7, o8, o9, o10, o11, o12, o13
      Another ordinary MODELS data card.          |INIT
      Another ordinary MODELS data card.          |  o1:=AnVol
      Another ordinary MODELS data card.          |  o2:=LONG
      Another ordinary MODELS data card.          |  o3:=R0F
      Another ordinary MODELS data card.          |  o4:=R1F
      Another ordinary MODELS data card.          |  o5:=X0F
      Another ordinary MODELS data card.          |  O6:=X1F
      Another ordinary MODELS data card.          |  o7:=RDIVX
      Another ordinary MODELS data card.          |  o8:=RINSER
      Another ordinary MODELS data card.          |  o9:=CLOSE1
      Another ordinary MODELS data card.          |  o10:=RPpos
      Another ordinary MODELS data card.          |  o11:=RPcero
      Another ordinary MODELS data card.          |  o12:=LPpos
      Another ordinary MODELS data card.          |  o13:=LPcero
      Another ordinary MODELS data card.          |
      Another ordinary MODELS data card.          |ENDINIT
      Another ordinary MODELS data card.          |EXEC
      Another ordinary MODELS data card.          |ENDEXEC
      Another ordinary MODELS data card.          |ENDMODEL
      Another ordinary MODELS data card.          |MODEL DEFAULT1
      Another ordinary MODELS data card.          |DATA CPpos,CPcero,Xp,CR,SIMET,ENC1,ENC2,ENC1AS,ENC2AS
      Another ordinary MODELS data card.          |OUTPUT o1, o2, o3, o4, o5, o6, o7, o8, o9
      Another ordinary MODELS data card.          |VAR o1, o2, o3, o4, o5, o6, o7, o8, o9
      Another ordinary MODELS data card.          |INIT
      Another ordinary MODELS data card.          |  o1:=CPpos
      Another ordinary MODELS data card.          |  o2:=CPcero
      Another ordinary MODELS data card.          |  o3:=Xp
      Another ordinary MODELS data card.          |  o4:=CR
      Another ordinary MODELS data card.          |  o5:=SIMET
      Another ordinary MODELS data card.          |  o6:=ENC1
      Another ordinary MODELS data card.          |  o7:=ENC2
      Another ordinary MODELS data card.          |  o8:=ENC1AS
      Another ordinary MODELS data card.          |  o9:=ENC2AS
      Another ordinary MODELS data card.          |
      Another ordinary MODELS data card.          |ENDINIT
      Another ordinary MODELS data card.          |EXEC
      Another ordinary MODELS data card.          |ENDEXEC
      Another ordinary MODELS data card.          |ENDMODEL
      Another ordinary MODELS data card.          |USE DEFAULT AS DEFAULT
      Another ordinary MODELS data card.          |DATA
      Another ordinary MODELS data card.          |  AnVol:=      0.0
      Another ordinary MODELS data card.          |  LONG:= 170.6241
      Another ordinary MODELS data card.          |  R0F:= 0.880836
      Another ordinary MODELS data card.          |  R1F:=  1.16405
      Another ordinary MODELS data card.          |  X0F:= 7.094747
      Another ordinary MODELS data card.          |  X1F:= 9.375912
      Another ordinary MODELS data card.          |  RDIVX:= 0.124153
      Another ordinary MODELS data card.          |  RINSER:=     360.
      Another ordinary MODELS data card.          |  CLOSE1:= 0.058021
      Another ordinary MODELS data card.          |  RPpos:= 0.025726
      Another ordinary MODELS data card.          |  RPcero:= 0.217279
      Another ordinary MODELS data card.          |  LPpos:=  0.22786
      Another ordinary MODELS data card.          |  LPcero:=  1.04712
      Another ordinary MODELS data card.          |OUTPUT
      Another ordinary MODELS data card.          |  AnVol:=o1
      Another ordinary MODELS data card.          |  LONG:=o2
      Another ordinary MODELS data card.          |  R0F:=o3
      Another ordinary MODELS data card.          |  R1F:=o4
      Another ordinary MODELS data card.          |  X0F:=o5
      Another ordinary MODELS data card.          |  X1F:=o6
      Another ordinary MODELS data card.          |  RDIVX:=o7
      Another ordinary MODELS data card.          |  RINSER:=o8
      Another ordinary MODELS data card.          |  CLOSE1:=o9
      Another ordinary MODELS data card.          |  RPpos:=o10
      Another ordinary MODELS data card.          |  RPcero:=o11
      Another ordinary MODELS data card.          |  LPpos:=o12
      Another ordinary MODELS data card.          |  LPcero:=o13
      Another ordinary MODELS data card.          |ENDUSE
      Another ordinary MODELS data card.          |USE DEFAULT1 AS DEF
      Another ordinary MODELS data card.          |DATA
      Another ordinary MODELS data card.          |  CPpos:=   0.0149
      Another ordinary MODELS data card.          |  CPcero:= 0.008422
      Another ordinary MODELS data card.          |  Xp:= 1926.252
      Another ordinary MODELS data card.          |  CR:= 38.52503
      Another ordinary MODELS data card.          |  SIMET:=      0.0
      Another ordinary MODELS data card.          |  ENC1:=      0.0
      Another ordinary MODELS data card.          |  ENC2:=      0.0
      Another ordinary MODELS data card.          |  ENC1AS:=       1.
      Another ordinary MODELS data card.          |  ENC2AS:=      0.0
      Another ordinary MODELS data card.          |OUTPUT
      Another ordinary MODELS data card.          |  CPpos:=o1
      Another ordinary MODELS data card.          |  CPcero:=o2
      Another ordinary MODELS data card.          |  Xp:=o3
      Another ordinary MODELS data card.          |  CR:=o4
      Another ordinary MODELS data card.          |  SIMET:=o5
      Another ordinary MODELS data card.          |  ENC1:=o6
      Another ordinary MODELS data card.          |  ENC2:=o7
      Another ordinary MODELS data card.          |  ENC1AS:=o8
      Another ordinary MODELS data card.          |  ENC2AS:=o9
      Another ordinary MODELS data card.          |ENDUSE
      Another ordinary MODELS data card.          |RECORD
      Another ordinary MODELS data card.          |  DEFAULT.o1 AS AnVOL
      Another ordinary MODELS data card.          |  DEFAULT.o2 AS LONG
      Another ordinary MODELS data card.          |  DEFAULT.o3 AS R0F
      Another ordinary MODELS data card.          |  DEFAULT.o4 AS R1F
      Another ordinary MODELS data card.          |  DEFAULT.o5 AS X0F
      Another ordinary MODELS data card.          |  DEFAULT.o6 AS X1F
      Another ordinary MODELS data card.          |  DEFAULT.o7 AS RDIVX
      Another ordinary MODELS data card.          |  DEFAULT.o8 AS RINSER
      Another ordinary MODELS data card.          |  DEFAULT.o9 AS CLOSE1
      Another ordinary MODELS data card.          |  DEFAULT.o10 AS RPpos
      Another ordinary MODELS data card.          |  DEFAULT.o11 AS RPcero
      Another ordinary MODELS data card.          |  DEFAULT.o12 AS LPpos
      Another ordinary MODELS data card.          |  DEFAULT.o13 AS LPcero
      Another ordinary MODELS data card.          |  DEF.o1 AS CPpos
      Another ordinary MODELS data card.          |  DEF.o2 AS CPcero
      Another ordinary MODELS data card.          |  DEF.o3 AS Xp
      Another ordinary MODELS data card.          |  DEF.o4 AS CR
      Another ordinary MODELS data card.          |  DEF.o5 AS SIMET
      Another ordinary MODELS data card.          |  DEF.o6 AS ENC1
      Another ordinary MODELS data card.          |  DEF.o7 AS ENC2
      Another ordinary MODELS data card.          |  DEF.o8 AS ENC1AS
      Another ordinary MODELS data card.          |  DEF.o9 AS ENC2AS
Termination of data for Laurent Dube`s MODELS.    |ENDMODELS
Comment card.   NUMDCD = 153.                     |C        1         2         3         4         5         6         7         8
Comment card.   NUMDCD = 154.                     |C 345678901234567890123456789012345678901234567890123456789012345678901234567890
Optional blank card follows last of MODELS data.  |BLANK MODELS
Comment card.   NUMDCD = 156.                     |C < n1 >< n2 ><ref1><ref2>< R  >< L  >< C  >
Comment card.   NUMDCD = 157.                     |C < n1 >< n2 ><ref1><ref2>< R  >< A  >< B  ><Leng><><>0
1st of coupled R-L.   8.80840E-01  2.25833E-02    |51IFUENASB1A              .880847.0947473257
2nd coil. 1.164E+00 2.984E-02 0.000E+00 0.000E+00 |52IFUENBSB1B              1.16419.3759124523
Zca, Zcc=-9.442E-02-2.420E-03 1.070E+00 2.742E-02 |53IFUENCSB1C
Series R-L-C.   1.000E+09  0.000E+00  0.000E+00   |  SB1A                      1.E9                                               0
Series R-L-C.   1.000E+09  0.000E+00  0.000E+00   |  SB1B                      1.E9                                               0
Series R-L-C.   1.000E+09  0.000E+00  0.000E+00   |  SB1C                      1.E9                                               0
Series R-L-C.   3.852E+01  6.132E+00  0.000E+00   |  RSNSHA                  38.5251926.3                                         0
Series R-L-C.   3.852E+01  6.132E+00  0.000E+00   |  RSNSHB                  38.5251926.3                                         0
Series R-L-C.   3.852E+01  6.132E+00  0.000E+00   |  RSNSHC                  38.5251926.3                                         0
Series R-L-C.   1.000E+09  0.000E+00  0.000E+00   |  RSNNHA                    1.E9                                               0
Series R-L-C.   1.000E+09  0.000E+00  0.000E+00   |  RSNNHB                    1.E9                                               0
Series R-L-C.   1.000E+09  0.000E+00  0.000E+00   |  RSNNHC                    1.E9                                               0
Series R-L-C.   1.000E+09  0.000E+00  0.000E+00   |  SE2A                      1.E9                                               0
Series R-L-C.   1.000E+09  0.000E+00  0.000E+00   |  SE2B                      1.E9                                               0
Series R-L-C.   1.000E+09  0.000E+00  0.000E+00   |  SE2C                      1.E9                                               0
Series R-L-C.   2.500E+02  0.000E+00  3.000E-10   |  X0001B                    250.       .0003                                   0
Series R-L-C.   2.500E+02  0.000E+00  3.000E-10   |  X0002B                    250.       .0003                                   0
Series R-L-C.   1.000E-06  0.000E+00  0.000E+00   |  X0001ALN1A               1.E-6                                               0
Series R-L-C.   1.000E-06  0.000E+00  0.000E+00   |  SB1A  X0002A             1.E-6                                               0
Series R-L-C.   1.000E-06  0.000E+00  0.000E+00   |  X0001BLN1B               1.E-6                                               0
Series R-L-C.   1.000E-06  0.000E+00  0.000E+00   |  SB1B  X0002B             1.E-6                                               0
Series R-L-C.   1.000E-06  0.000E+00  0.000E+00   |  X0001CLN1C               1.E-6                                               0
Series R-L-C.   1.000E-06  0.000E+00  0.000E+00   |  SB1C  X0002C             1.E-6                                               0
Series R-L-C.   3.600E+02  0.000E+00  0.000E+00   |  XX0005X0002A              360.                                               0
Series R-L-C.   3.600E+02  0.000E+00  0.000E+00   |  XX0003X0002B              360.                                               0
Series R-L-C.   3.600E+02  0.000E+00  0.000E+00   |  XX0004X0002C              360.                                               0
Series R-L-C.   2.500E+02  0.000E+00  3.000E-10   |  X0001A                    250.       .0003                                   0
Series R-L-C.   1.000E+06  0.000E+00  0.000E+00   |  X0001AX0002A              1.E6                                               0
Series R-L-C.   1.000E+06  0.000E+00  0.000E+00   |  X0001BX0002B              1.E6                                               0
Series R-L-C.   1.000E+06  0.000E+00  0.000E+00   |  X0001CX0002C              1.E6                                               0
Series R-L-C.   2.500E+02  0.000E+00  3.000E-10   |  X0002C                    250.       .0003                                   0
Series R-L-C.   2.500E+02  0.000E+00  3.000E-10   |  X0002A                    250.       .0003                                   0
Series R-L-C.   2.500E+02  0.000E+00  3.000E-10   |  X0001C                    250.       .0003                                   0
Series R-L-C.   1.250E+02  0.000E+00  6.000E-10   |  X0001AX0002A              125.       .0006                                   0
Series R-L-C.   1.250E+02  0.000E+00  6.000E-10   |  X0001BX0002B              125.       .0006                                   0
Series R-L-C.   1.250E+02  0.000E+00  6.000E-10   |  X0001CX0002C              125.       .0006                                   0
 2.173E-01 1.047E+00 8.420E-03 6.292E+02 9.039E-04|-1LN1A  VFF2A             .217281.0471.00842170.62 0 0                         0
 2.573E-02 2.279E-01 1.490E-02 2.206E+02 5.609E-04|-2LN1B  VFF2B             .02573.22786 .0149170.62 0 0                         0
3rd or later transposed distributed phase.        |-3LN1C  VFF2C                                                                  0
Blank card ending branches.  IBR, NTOT = 39  31   |BLANK BRANCH
Comment card.   NUMDCD = 198.                     |C < n 1>< n 2>< Tclose ><Top/Tde ><   Ie   ><Vf/CLOP ><  type  >
Switch.  -1.00E+00  1.00E+01  0.00E+00  0.00E+00  |  LN1A  COMPA        -1.       10.                                             0
Switch.  -1.00E+00  1.00E+01  0.00E+00  0.00E+00  |  LN1B  COMPB        -1.       10.                                             0
Switch.  -1.00E+00  1.00E+01  0.00E+00  0.00E+00  |  LN1C  COMPC        -1.       10.                                             0
Switch.  -1.00E+00  1.00E+01  0.00E+00  0.00E+00  |  VFF2A RSNNHA       -1.       10.                                             0
Switch.  -1.00E+00  1.00E+01  0.00E+00  0.00E+00  |  VFF2B RSNNHB       -1.       10.                                             0
Switch.  -1.00E+00  1.00E+01  0.00E+00  0.00E+00  |  VFF2C RSNNHC       -1.       10.                                             0
Switch.   2.00E+00 -1.00E+00  0.00E+00  0.00E+00  |  VFF2A SE2A          2.       -1.                                             0
Switch.   2.00E+00 -1.00E+00  0.00E+00  0.00E+00  |  VFF2B SE2B          2.       -1.                                             0
Switch.   2.00E+00 -1.00E+00  0.00E+00  0.00E+00  |  VFF2C SE2C          2.       -1.                                             0
Switch.   5.80E-02  1.00E+03  0.00E+00  0.00E+00  |  X0001BXX0003.058020576      1.E3                                             0
Switch.   5.80E-02  1.00E+03  0.00E+00  0.00E+00  |  X0001CXX0004.058020576      1.E3                                             0
Switch.   6.55E-02  1.00E+03  0.00E+00  0.00E+00  |  XX0005X0002A.065520576      1.E3                                             0
Switch.   6.55E-02  1.00E+03  0.00E+00  0.00E+00  |  XX0003X0002B.065520576      1.E3                                             0
Switch.   6.55E-02  1.00E+03  0.00E+00  0.00E+00  |  XX0004X0002C.065520576      1.E3                                             0
Switch.   5.80E-02  1.00E+03  0.00E+00  0.00E+00  |  X0001AXX0005.058020576      1.E3                                             0
Permanently-closed switch used for metering.      |  VFUENAIFUENA                                        MEASURING                1
Permanently-closed switch used for metering.      |  VFUENBIFUENB                                        MEASURING                1
Permanently-closed switch used for metering.      |  VFUENCIFUENC                                        MEASURING                1
Permanently-closed switch used for metering.      |  COMPA RSNSHA                                        MEASURING                1
Permanently-closed switch used for metering.      |  COMPB RSNSHB                                        MEASURING                1
Permanently-closed switch used for metering.      |  COMPC RSNSHC                                        MEASURING                1
Blank card ending switches.   KSWTCH = 21.        |BLANK SWITCH
Comment card.   NUMDCD = 221.                     |C < n 1><>< Ampl.  >< Freq.  ><Phase/T0><   A1   ><   T1   >< TSTART >< TSTOP  >
Source.   4.29E+05  5.00E+01  0.00E+00 -1.00E+00  |14VFUENA  428660.705       50.                                     -1.      100.
Source.   4.29E+05  5.00E+01 -1.20E+02 -1.00E+00  |14VFUENB  428660.705       50.     -120.                           -1.      100.
Source.   4.29E+05  5.00E+01 -2.40E+02 -1.00E+00  |14VFUENC  428660.705       50.     -240.                           -1.      100.
Blank card ends electric sources.  KCONST = 3     |BLANK SOURCE
Pi-equivalent branches of distributed circuits are added to the table of List Size 3 between indices  40   and  45.

Sinusoidal steady-state phasor solution, branch by branch.   All flows are away from a bus,  and the real part,  magnitude,  or  "P"
is printed above the imaginary part,  the angle,  or  "Q".   The first solution frequency  =  5.00000000E+01  Hertz.
  Bus K                        Phasor  node  voltage              Phasor  branch  current               Power flow       Power loss
             Bus M         Rectangular            Polar          Rectangular            Polar            P  and  Q        P  and  Q

 IFUENA                    428660.705       428660.705      .42845408780043  .44565073650128      91830.715668333  .11559779517376
                                  0.0              0.0      .12260372584562       15.9686701       -26277.6997783        0.9310496

            SB1A       428661.3557584  428661.35577858      -.4284540878004  .44565073650128      -91830.60007054
                      -4.159871014315       -0.0005560      -.1226037258456     -164.0313299      26278.630827877

 IFUENB                  -214330.3525       428660.705      -.1080491027264  .44565073650311      91830.715669116  .11559779517335
                      -371231.0601341     -120.0000000      -.4323539873134     -104.0313299        -26277.699777        0.9310496

            SB1B      -214334.2804332  428661.35577858       .1080491027264  .44565073650311      -91830.60007132
                      -371229.5437719     -120.0005560      .43235398731339       75.9686701      26278.630826569

 IFUENC                  -214330.3525       428660.705      -.3204049850872  .44565073649889       91830.71566718  .11559779517589
                      371231.06013415      120.0000000      .30975026145792      135.9686701      -26277.69978048        0.9310496

            SB1C      -214327.0753252  428661.35577858      .32040498508724  .44565073649889      -91830.60006938
                      371233.70364296      119.9994440      -.3097502614579      -44.0313299      26278.630830051

 SB1A                  428661.3557584  428661.35577858      .42866135576E-3  .42866135578E-3      91.875278968965  91.875278968965
                      -4.159871014315       -0.0005560      -.4159871014E-8       -0.0005560      -.588158503E-19        0.0000000

            TERRA                 0.0              0.0      -.4286613558E-3  .42866135578E-3                  0.0
                                  0.0              0.0      .41598710143E-8      179.9994440                  0.0

 SB1B                 -214334.2804332  428661.35577858      -.2143342804E-3  .42866135578E-3      91.875278968965  91.875278968965
                      -371229.5437719     -120.0005560      -.3712295438E-3     -120.0005560      .1439820485E-14        0.0000000

            TERRA                 0.0              0.0      .21433428043E-3  .42866135578E-3                  0.0
                                  0.0              0.0      .37122954377E-3       59.9994440                  0.0

 SB1C                 -214327.0753252  428661.35577858      -.2143270753E-3  .42866135578E-3      91.875278968966  91.875278968966
                      371233.70364296      119.9994440      .37123370364E-3      119.9994440      .2949029909E-15        0.0000000

            TERRA                 0.0              0.0      .21432707533E-3  .42866135578E-3                  0.0
                                  0.0              0.0      -.3712337036E-3      -60.0005560                  0.0

 RSNSHA               343.70490957608  1511.1337627122      -.7600413456002  .78431793712162      11.849415992777  11.849415992777
                       -1471.52716045      -76.8531070      -.1936279408271     -165.7073739      592.48617850453      592.4861785

            TERRA                 0.0              0.0      .76004134560019  .78431793712162                  0.0
                                  0.0              0.0      .19362794082714       14.2926261                  0.0

 RSNSHB               -1446.232358096  1511.1337627122      .21233395716136   .7843179371216      11.849415992777  11.849415992777
                      438.10639712677      163.1468930      .75502908362981       74.2926261       592.4861785045      592.4861785

            TERRA                 0.0              0.0      -.2123339571614   .7843179371216                  0.0
                                  0.0              0.0      -.7550290836298     -105.7073739                  0.0

 RSNSHC               1102.5274485205  1511.1337627123      .54770738843886  .78431793712164      11.849415992778  11.849415992778
                      1033.4207633233       43.1468930      -.5614011428027      -45.7073739      592.48617850456      592.4861785

            TERRA                 0.0              0.0      -.5477073884389  .78431793712164                  0.0
                                  0.0              0.0      .56140114280274      134.2926261                  0.0

 RSNNHA               346.46209797881   1534.899835126      .34646209798E-6  .15348998351E-5      .00117795875193  .00117795875193
                      -1495.286433609      -76.9546069      -.1495286434E-5      -76.9546069      .6908612476E-20        0.0000000

            TERRA                 0.0              0.0       -.346462098E-6  .15348998351E-5                  0.0
                                  0.0              0.0      .14952864336E-5      103.0453931                  0.0

 RSNNHB               -1468.187086429  1534.8998351259      -.1468187086E-5  .15348998351E-5      .00117795875193  .00117795875193
                      447.59823850626      163.0453931      .44759823851E-6      163.0453931      .6802733358E-20        0.0000000

            TERRA                 0.0              0.0      .14681870864E-5  .15348998351E-5                  0.0
                                  0.0              0.0      -.4475982385E-6      -16.9546069                  0.0

 RSNNHC               1121.7249884499   1534.899835126      .11217249884E-5  .15348998351E-5      .00117795875193  .00117795875193
                      1047.6881951024       43.0453931      .10476881951E-5       43.0453931      .1058791184E-20        0.0000000

            TERRA                 0.0              0.0      -.1121724988E-5  .15348998351E-5                  0.0
                                  0.0              0.0      -.1047688195E-5     -136.9546069                  0.0

 X0001B               -1446.232358239  1511.1337627295      -.4129376669E-4  .14242100179E-3      .25354677188E-5  .25354677188E-5
                       438.1063967151      163.1468930      -.1363032156E-3     -106.8544570      -.1076085921319       -0.1076086

            TERRA                 0.0              0.0      .41293766691E-4  .14242100179E-3                  0.0
                                  0.0              0.0       .1363032156E-3       73.1455430                  0.0

 X0002B               -214334.2804331  428661.35577815      .03498708424204   .0404003809745       .2040238478609   .2040238478609
                      -371229.5437715     -120.0005560      -.0202013543884      -30.0019060      -8659.041038838    -8659.0410388

            TERRA                 0.0              0.0       -.034987084242   .0404003809745                  0.0
                                  0.0              0.0      .02020135438838      149.9980940                  0.0

 X0001A               343.70491000398  1511.1337627295      .42790429688466  .43572253517059      13.078121973549  .94927063831E-7
                      -1471.527160368      -76.8531070      .08217079994211       10.8702267      -328.9576511515              0.0

            LN1A      343.70490957608  1511.1337627122      -.4279042968847  .43572253517059      -13.07812187862
                       -1471.52716045      -76.8531070      -.0821707999421     -169.1297733      328.95765115147

 SB1A                  428661.3557584  428661.35577858      .42805913835764  .44527104161509      91745.950288727  .99133146136E-7
                      -4.159871014315       -0.0005560      .12260372983519       15.9826519       -26278.6308615              0.0

            X0002A    428661.35575797  428661.35577815      -.4280591383576  .44527104161509      -91745.95028863
                      -4.159871136919       -0.0005560      -.1226037298352     -164.0173481      26278.630861496

 X0001B               -1446.232358239  1511.1337627295      -.1427899860573  .43572249351914      13.078002028363  .94927045675E-7
                       438.1063967151      163.1468930       -.411661403632     -109.1297526      -328.9576244247              0.0

            LN1B      -1446.232358096  1511.1337627122      .14278998605732  .43572249351914      -13.07800193344
                      438.10639712677      163.1468930      .41166140363202       70.8702474       328.9576244247

 SB1B                 -214334.2804332  428661.35577858      -.1078296918422   .4452708779784      91744.584740891  .99133082188E-7
                      -371229.5437719     -120.0005560      -.4320172592998     -104.0144445      -26283.27054954        0.0000000

            X0002B    -214334.2804331  428661.35577815       .1078296918422   .4452708779784      -91744.58474079
                      -371229.5437715     -120.0005560      .43201725929976       75.9855555      26283.270549538

 X0001C               1102.5274482354  1511.1337627296      -.2851143108273  .43572265049971      13.078038854896  .94927114086E-7
                      1033.4207636528       43.1468930      .32949060368992      130.8702418      -328.9577416637              0.0

            LN1C      1102.5274485205  1511.1337627123      .28511431082734  .43572265049971      -13.07803875997
                      1033.4207633233       43.1468930      -.3294906036899      -49.1297582      328.95774166366

 SB1C                 -214327.0753252  428661.35577858       -.320200342685   .4452419080603      91738.777008908  .99120178731E-7
                      371233.70364296      119.9994440      .30937371775508      135.9852038      -26280.99750688        0.0000000

            X0002C    -214327.0753249  428661.35577815      .32020034268498   .4452419080603      -91738.77700881
                      371233.70364265      119.9994440      -.3093737177551      -44.0147962      26280.997506877

 XX0005               428661.35575797  428661.35577815                  0.0              0.0                  0.0              0.0
                      -4.159871136919       -0.0005560                  0.0              0.0                  0.0              0.0

            X0002A    428661.35575797  428661.35577815                  0.0              0.0                  0.0
                      -4.159871136919       -0.0005560                  0.0              0.0                  0.0

 XX0003               -214334.2804331  428661.35577815                  0.0              0.0                  0.0              0.0
                      -371229.5437715     -120.0005560                  0.0              0.0                  0.0              0.0

            X0002B    -214334.2804331  428661.35577815                  0.0              0.0                  0.0
                      -371229.5437715     -120.0005560                  0.0              0.0                  0.0

 XX0004               -214327.0753249  428661.35577815                  0.0              0.0                  0.0              0.0
                      371233.70364265      119.9994440                  0.0              0.0                  0.0              0.0

            X0002C    -214327.0753249  428661.35577815                  0.0              0.0                  0.0
                      371233.70364265      119.9994440                  0.0              0.0                  0.0

 X0001A               343.70491000398  1511.1337627295      .13868893067E-3  .14242100179E-3      .25354677188E-5  .25354677188E-5
                      -1471.527160368      -76.8531070      .32390156827E-4       13.1455430      -.1076085921319       -0.1076086

            TERRA                 0.0              0.0      -.1386889307E-3  .14242100179E-3                  0.0
                                  0.0              0.0      -.3239015683E-4     -166.8544570                  0.0

 X0001A               343.70491000398  1511.1337627295       -.428317650848  .42832016435685      -72.52780440874   91729.08159734
                      -1471.527160368      -76.8531070      -.0014673672892     -179.8037120      315.39269891491        0.0000000

            X0002A    428661.35575797  428661.35577815      .42831765084796  .42832016435685      91801.609401749
                      -4.159871136919       -0.0005560      .00146736728923        0.1962880      -315.3926989149

 X0001B               -1446.232358239  1511.1337627295      .21288804807483  .42832016435685      -72.52780440872   91729.08159734
                       438.1063967151      163.1468930      .37166765016823       60.1962880      315.39269891491        0.0000000

            X0002B    -214334.2804331  428661.35577815      -.2128880480748  .42832016435685      91801.609401749
                      -371229.5437715     -120.0005560      -.3716676501682     -119.8037120      -315.3926989149

 X0001C               1102.5274482354  1511.1337627296      .21542960277314  .42832016435685      -72.52780440873   91729.08159734
                      1033.4207636528       43.1468930       -.370200282879      -59.8037120      315.39269891492        0.0000000

            X0002C    -214327.0753249  428661.35577815      -.2154296027731  .42832016435685      91801.609401749
                      371233.70364265      119.9994440      .37020028287899      120.1962880      -315.3926989149

 X0002C               -214327.0753249  428661.35577815      -.0349884282122   .0404003809745      .20402384786092  .20402384786092
                      371233.70364265      119.9994440      -.0201990265638     -150.0019060      -8659.041038838    -8659.0410388

            TERRA                 0.0              0.0      .03498842821221   .0404003809745                  0.0
                                  0.0              0.0      .02019902656377       29.9980940                  0.0

 X0002A               428661.35575797  428661.35577815      .13439701681E-5   .0404003809745      .20402384786059  .20402384786059
                      -4.159871136919       -0.0005560      .04040038095215       89.9980940      -8659.041038838    -8659.0410388

            TERRA                 0.0              0.0      -.1343970168E-5   .0404003809745                  0.0
                                  0.0              0.0      -.0404003809521      -90.0019060                  0.0

 X0001C               1102.5274482354  1511.1337627296      -.9739516398E-4  .14242100179E-3      .25354677188E-5  .25354677188E-5
                      1033.4207636528       43.1468930      .10391305877E-3      133.1455430      -.1076085921319       -0.1076086

            TERRA                 0.0              0.0      .97395163981E-4  .14242100179E-3                  0.0
                                  0.0              0.0      -.1039130588E-3      -46.8544570                  0.0

 X0001A               343.70491000398  1511.1337627295      .27468992101E-3  .08073644888126       59.44980100208  .40739838612228
                      -1471.527160368      -76.8531070      -.0807359815906      -89.8050620      13.672569803625   -17290.5245224

            X0002A    428661.35575797  428661.35577815       -.274689921E-3  .08073644888126      -59.04240261596
                      -4.159871136919       -0.0005560      .08073598159064       90.1949380      -17304.19709221

 X0001B               -1446.232358239  1511.1337627295      -.0700567560175  .08073644888126      59.449801002079  .40739838612322
                       438.1063967151      163.1468930      .04013010234556      150.1949380      13.672569803621   -17290.5245224

            X0002B    -214334.2804331  428661.35577815      .07005675601747  .08073644888126      -59.04240261596
                      -371229.5437715     -120.0005560      -.0401301023456      -29.8050620      -17304.19709221

 X0001C               1102.5274482354  1511.1337627296      .06978206609646  .08073644888126      59.449801002082  .40739838612139
                      1033.4207636528       43.1468930      .04060587924508       30.1949380      13.672569803623   -17290.5245224

            X0002C    -214327.0753249  428661.35577815      -.0697820660965  .08073644888126      -59.04240261596
                      371233.70364265      119.9994440      -.0406058792451     -149.8050620      -17304.19709221

 LN1A                 343.70490957608  1511.1337627122      1.1879456203515  1.2195408248186      1.2285939355165   1.227415976766
                       -1471.52716045      -76.8531070      .27579888775486       13.0704985      -921.4438386309     -921.4438386

            VFF2A     346.46209797881   1534.899835126      -.3464620981E-6  .15348998332E-5      -.0011779587504
                      -1495.286433609      -76.9546069      .14952864316E-5      103.0453931      .4439232519E-12

 LN1B                 -1446.232358096  1511.1337627122      -.3551239670446  1.2195408248186      1.2285939354981  1.2274159767459
                      438.10639712677      163.1468930      -1.166690529416     -106.9295015      -921.4438386309     -921.4438386

            VFF2B     -1468.187086429  1534.8998351259      .14681870867E-5  .15348998355E-5      -.0011779587522
                      447.59823850626      163.0453931      -.4475982389E-6      -16.9546070      -.263519127E-12

 LN1C                 1102.5274485205  1511.1337627123      -.8328216533069  1.2195408248186      1.2285939355018  1.2274159767491
                      1033.4207633233       43.1468930      .89089164166148      133.0704985       -921.443838631     -921.4438386

            VFF2C     1121.7249884499   1534.899835126      -.1121724989E-5   .1534899836E-5      -.0011779587526
                      1047.6881951024       43.0453931      -.1047688195E-5     -136.9546070      -.366233539E-12
     Total network loss  P-loss  by summing injections =   2.754926067773E+05

Output for steady-state phasor switch currents.
      Node-K    Node-M            I-real            I-imag            I-magn          Degrees        Power            Reactive
      LN1A      COMPA        -7.60041213E-01   -1.93627886E-01    7.84317795E-01    -165.7074    1.18493982E+01    5.92486071E+02
      LN1B      COMPB         2.12334059E-01    7.55029120E-01    7.84318000E-01      74.2926    1.18493507E+01    5.92486227E+02
      LN1C      COMPC         5.47707188E-01   -5.61401017E-01    7.84317707E-01     -45.7074    1.18493707E+01    5.92486005E+02
      VFF2A     RSNNHA        3.46462094E-07   -1.49528643E-06    1.53489983E-06     -76.9546    1.17795875E-03    2.35297101E-12
      VFF2B     RSNNHB       -1.46818709E-06    4.47598240E-07    1.53489984E-06     163.0454    1.17795875E-03    1.01742058E-12
      VFF2C     RSNNHC        1.12172499E-06    1.04768820E-06    1.53489984E-06      43.0454    1.17795875E-03    4.86797608E-13
      VFF2A     SE2A              Open              Open              Open             Open          Open              Open
      VFF2B     SE2B              Open              Open              Open             Open          Open              Open
      VFF2C     SE2C              Open              Open              Open             Open          Open              Open
      X0001B    XX0003            Open              Open              Open             Open          Open              Open
      X0001C    XX0004            Open              Open              Open             Open          Open              Open
      XX0005    X0002A            Open              Open              Open             Open          Open              Open
      XX0003    X0002B            Open              Open              Open             Open          Open              Open
      XX0004    X0002C            Open              Open              Open             Open          Open              Open
      X0001A    XX0005            Open              Open              Open             Open          Open              Open
      VFUENA    IFUENA        4.28454088E-01    1.22603726E-01    4.45650737E-01      15.9687    9.18307157E+04   -2.62776998E+04
      VFUENB    IFUENB       -1.08049103E-01   -4.32353987E-01    4.45650737E-01    -104.0313    9.18307157E+04   -2.62776998E+04
      VFUENC    IFUENC       -3.20404985E-01    3.09750261E-01    4.45650736E-01     135.9687    9.18307157E+04   -2.62776998E+04
      COMPA     RSNSHA       -7.60041213E-01   -1.93627886E-01    7.84317795E-01    -165.7074    1.18493982E+01    5.92486071E+02
      COMPB     RSNSHB        2.12334059E-01    7.55029120E-01    7.84318000E-01      74.2926    1.18493507E+01    5.92486227E+02
      COMPC     RSNSHC        5.47707188E-01   -5.61401017E-01    7.84317707E-01     -45.7074    1.18493707E+01    5.92486005E+02

Solution at nodes with known voltage.   Nodes that are shorted together by switches are shown as a group of names, with the printed
result applying to the composite group.   The entry "MVA" is  SQRT( P**2 + Q**2 )  in units of power,  while  "P.F."  is the
associated power factor.
              Node                Source  node  voltage             Injected  source  current              Injected  source  power
              name         Rectangular            Polar          Rectangular            Polar            P  and  Q    MVA and P.F.

               VFUENA
              IFUENA       428660.705       428660.705      .42845408780018  .44565073650008      91830.715668278  95516.479445946
                                  0.0              0.0      .12260372584215       15.9686701      -26277.69977756        0.9614123

               VFUENB
              IFUENB     -214330.3525       428660.705      -.1080491027243  .44565073650179      91830.715668738  95516.479446313
                      -371231.0601341     -120.0000000      -.4323539873125     -104.0313299      -26277.69977729        0.9614123

               VFUENC
              IFUENC     -214330.3525       428660.705      -.3204049850872  .44565073649946      91830.715667331  95516.479445814
                      371231.06013415      120.0000000      .30975026145874      135.9686701      -26277.69978039        0.9614123

  +++  Node  "COMPC "  has no connected linear branches.  Add (to ground) the conductance  G = 1.00000000E-18  mhos.
  +++  Node  "COMPB "  has no connected linear branches.  Add (to ground) the conductance  G = 1.00000000E-18  mhos.
  +++  Node  "COMPA "  has no connected linear branches.  Add (to ground) the conductance  G = 1.00000000E-18  mhos.
Card of names for time-step loop output.          |  LN1A  LN1B  LN1C  COMPA COMPB COMPC SB1A  SB1B  SB1C  SE2A  SE2B  SE2C  VFF2A
Card of names for time-step loop output.          |  VFF2B VFF2C IFUENAIFUENBIFUENC
Card of names for time-step loop output.          |-5VFF2A VFF2B VFF2B VFF2C VFF2C VFF2A LN1A  LN1B  LN1B  LN1C  LN1C  LN1A
Card of names for time-step loop output.          |-5SB1A  SB1B  SB1B  SB1C  SB1C  SB1A
Blank card ending requests for output variables.  |BLANK OUTPUT

Column headings for the  55   EMTP output variables follow.  These are divided among the 5 possible classes as follows ....
  First  27     output variables are electric-network voltage differences (upper voltage minus lower voltage);
  Next   6     output variables are branch currents (flowing from the upper node to the lower node);
  Next   22     output variables belong to MODELS (with "MODELS" an internally-added upper name of pair).
   Step      Time      LN1A       LN1B       LN1C       COMPA      COMPB      COMPC      SB1A       SB1B       SB1C       SE2A
 

                       SE2B       SE2C       VFF2A      VFF2B      VFF2C      IFUENA     IFUENB     IFUENC     VFF2A      VFF2B
                                                                                                               VFF2B      VFF2C

                       VFF2C      LN1A       LN1B       LN1C       SB1A       SB1B       SB1C       VFUENA     VFUENB     VFUENC
                       VFF2A      LN1B       LN1C       LN1A       SB1B       SB1C       SB1A       IFUENA     IFUENB     IFUENC

                       COMPA      COMPB      COMPC      MODELS     MODELS     MODELS     MODELS     MODELS     MODELS     MODELS
                       RSNSHA     RSNSHB     RSNSHC     ANVOL      LONG       R0F        R1F        X0F        X1F        RDIVX

                       MODELS     MODELS     MODELS     MODELS     MODELS     MODELS     MODELS     MODELS     MODELS     MODELS
                       RINSER     CLOSE1     RPPOS      RPCERO     LPPOS      LPCERO     CPPOS      CPCERO     XP         CR

                       MODELS     MODELS     MODELS     MODELS     MODELS
                       SIMET      ENC1       ENC2       ENC1AS     ENC2AS
 ***      Phasor I(0) = -7.6004121E-01                     Switch  "LN1A  "  to  "COMPA "  closed in the steady-state.
 ***      Phasor I(0) =  2.1233406E-01                     Switch  "LN1B  "  to  "COMPB "  closed in the steady-state.
 ***      Phasor I(0) =  5.4770719E-01                     Switch  "LN1C  "  to  "COMPC "  closed in the steady-state.
 ***      Phasor I(0) =  3.4646209E-07                     Switch  "VFF2A "  to  "RSNNHA"  closed in the steady-state.
 ***      Phasor I(0) = -1.4681871E-06                     Switch  "VFF2B "  to  "RSNNHB"  closed in the steady-state.
 ***      Phasor I(0) =  1.1217250E-06                     Switch  "VFF2C "  to  "RSNNHC"  closed in the steady-state.
 ***      Phasor I(0) =  4.2845409E-01                     Switch  "VFUENA"  to  "IFUENA"  closed in the steady-state.
 ***      Phasor I(0) = -1.0804910E-01                     Switch  "VFUENB"  to  "IFUENB"  closed in the steady-state.
 ***      Phasor I(0) = -3.2040499E-01                     Switch  "VFUENC"  to  "IFUENC"  closed in the steady-state.
 ***      Phasor I(0) = -7.6004121E-01                     Switch  "COMPA "  to  "RSNSHA"  closed in the steady-state.
 ***      Phasor I(0) =  2.1233406E-01                     Switch  "COMPB "  to  "RSNSHB"  closed in the steady-state.
 ***      Phasor I(0) =  5.4770719E-01                     Switch  "COMPC "  to  "RSNSHC"  closed in the steady-state.
      0       0.0   343.70491 -1446.2324 1102.52745  343.70491 -1446.2324 1102.52745 428661.356 -214334.28 -214327.08        0.0
                          0.0        0.0 346.462098 -1468.1871 1121.72499 428660.705 -214330.35 -214330.35 1814.64918 -2589.9121
                    775.26289 1789.93727 -2548.7598 758.822539 642995.636 -7.2051079 -642988.43 .428454088  -.1080491 -.32040499
                   -.76004121 .212334059 .547707188        0.0   170.6241    .880836    1.16405   7.094747   9.375912    .124153
                         360.    .058021    .025726    .217279     .22786    1.04712      .0149    .008422   1926.252   38.52503
                          0.0        0.0        0.0        1.0        0.0
    500     .5E-3  569.670955 -1496.9618 927.290872 569.670955 -1496.9618 927.290872 423384.467 -153622.37  -269762.1        0.0
                          0.0        0.0 576.110905 -1520.1311 944.020146  423383.18 -153618.26 -269764.92 2096.24196 -2464.1512
                    367.90924 2066.63278 -2424.2527 357.619917 577006.838 116139.724 -693146.56 .404007662 -.03908673 -.36492093
                    -.7203939 .091607361 .628786656        0.0   170.6241    .880836    1.16405   7.094747   9.375912    .124153
                         360.    .058021    .025726    .217279     .22786    1.04712      .0149    .008422   1926.252   38.52503
                          0.0        0.0        0.0        1.0        0.0
   1000     .1E-2  781.609732 -1510.8311 729.221329 781.609732 -1510.8311 729.221329 407682.462 -89127.777 -318554.69        0.0
                          0.0        0.0 791.574391 -1534.6446 743.070224 407680.557 -89123.572 -318556.98 2326.21901 -2277.7148
                   -48.504167 2292.44079 -2240.0524 -52.388402 496810.239 229426.909 -726237.15  .36960494 .030842238 -.40044718
                   -.66300797 -.03137519 .694383154        0.0   170.6241    .880836    1.16405   7.094747   9.375912    .124153
                         360.    .058021    .025726    .217279     .22786    1.04712      .0149    .008422   1926.252   38.52503
                          0.0        0.0        0.0        1.0        0.0
   1500     .0015  974.302899 -1487.4988 513.195879 974.302899 -1487.4988 513.195879 381941.948 -22438.554 -359503.39        0.0
                          0.0        0.0 987.545856 -1511.3697 523.823811 381939.485 -22434.368 -359505.12 2498.91552 -2035.1935
                   -463.72205 2461.80168 -2000.6947 -461.10702 404380.502 337064.841 -741445.34 .326099078 .100012882 -.42611196
                   -.58929658 -.15358511 .742881568        0.0   170.6241    .880836    1.16405   7.094747   9.375912    .124153
                         360.    .058021    .025726    .217279     .22786    1.04712      .0149    .008422   1926.252   38.52503
                          0.0        0.0        0.0        1.0        0.0
   2000      .002  1143.00514 -1427.5391 284.533969 1143.00514 -1427.5391 284.533969 346796.763 44803.1777 -391599.94        0.0
                          0.0        0.0 1159.20106   -1450.88  291.67897 346793.795 44807.2448 -391601.04 2610.08109  -1742.559
                   -867.52209 2570.54425 -1712.0731 -858.47117 301993.585 436403.118  -738396.7 .274568858 .166718237  -.4412871
                   -.50107475 -.27201302 .773087889        0.0   170.6241    .880836    1.16405   7.094747   9.375912    .124153
                         360.    .058021    .025726    .217279     .22786    1.04712      .0149    .008422   1926.252   38.52503
                          0.0        0.0        0.0        1.0        0.0
   2500     .0025    1283.563 -1332.4288 48.8658385   1283.563 -1332.4288 48.8658385 303112.287 110941.708 -414053.99        0.0
                          0.0        0.0 1302.31313  -1354.665 52.3518488 303108.891 110945.554 -414054.45 2656.97811 -1407.0168
                   -1249.9613 2615.99184 -1381.2947 -1234.6972 192170.579 524995.702 -717166.28 .216275114 .229319799 -.44559491
                    -.4005149 -.38374336  .78425817        0.0   170.6241    .880836    1.16405   7.094747   9.375912    .124153
                         360.    .058021    .025726    .217279     .22786    1.04712      .0149    .008422   1926.252   38.52503
                          0.0        0.0        0.0        1.0        0.0
   3000      .003  1392.51534 -1204.5097 -188.00562 1392.51534 -1204.5097 -188.00562 251964.187 174348.481 -426312.67        0.0
                          0.0        0.0 1413.35757 -1225.0935 -188.26412 251960.441 174352.016 -426312.46 2638.45103 -1036.8293
                   -1601.6217 2597.02507 -1016.5041  -1580.521 77615.7063  600661.15 -678276.86 .152654824 .286275314 -.43893014
                    -.2900928 -.48602458 .776117403        0.0   170.6241    .880836    1.16405   7.094747   9.375912    .124153
                         360.    .058021    .025726    .217279     .22786    1.04712      .0149    .008422   1926.252   38.52503
                          0.0        0.0        0.0        1.0        0.0
   3500     .0035  1467.17904 -1046.9315 -420.24755 1467.17904 -1046.9315 -420.24755 194611.892 233462.217 -428074.11        0.0
                          0.0        0.0 1489.60053  -1065.356 -424.24449 194607.888 233465.353 -428073.24 2554.95657 -641.11155
                    -1913.845 2514.11054 -626.68394 -1887.4266 -38850.324 661536.326   -622686. .085278216 .336180508 -.42145872
                    -.1725278 -.57633825 .748866052        0.0   170.6241    .880836    1.16405   7.094747   9.375912    .124153
                         360.    .058021    .025726    .217279     .22786    1.04712      .0149    .008422   1926.252   38.52503
                          0.0        0.0        0.0        1.0        0.0
   4000      .004  1505.71615 -863.57438 -642.14176 1505.71615 -863.57438 -642.14176 132467.599 286827.342 -419294.94        0.0
                          0.0        0.0 1529.16465 -879.38611 -649.77854 132463.443 286829.997 -419293.44 2408.55076 -229.60757
                   -2178.9432 2369.29053 -221.43262 -2147.8579 -154359.74 706122.283 -551762.54 .015799368 .377809021 -.39360839
                   -.05071459 -.65246058 .703175172        0.0   170.6241    .880836    1.16405   7.094747   9.375912    .124153
                         360.    .058021    .025726    .217279     .22786    1.04712      .0149    .008422   1926.252   38.52503
                          0.0        0.0        0.0        1.0        0.0
   4500     .0045  1507.17881  -658.9539 -848.22491 1507.17881  -658.9539 -848.22491 67061.5215 333129.822 -400191.34        0.0
                          0.0        0.0 1531.07562  -671.7627 -859.31292 67057.3081 333131.936 -400189.24 2202.83833 187.550211
                   -2390.3885 2166.13272  189.27101 -2355.4037  -266068.3 733321.166 -467252.87 -.05406812 .410134434 -.35606631
                   .072347404 -.71251704 .640169752        0.0   170.6241    .880836    1.16405   7.094747   9.375912    .124153
                         360.    .058021    .025726    .217279     .22786    1.04712      .0149    .008422   1926.252   38.52503
                          0.0        0.0        0.0        1.0        0.0
   5000      .005  1471.52722 -438.10649 -1033.4207 1471.52722 -438.10649 -1033.4207 4.16280055 371229.542 -371233.71        0.0
                          0.0        0.0 1495.28652 -447.59832 -1047.6882 -.45661E-7  371231.06 -371231.06 1942.88484 600.089878
                   -2542.9747 1909.63371  595.31425  -2504.948 -371225.38 742463.247 -371237.87 -.12260337 .432360515 -.30975715
                   .193627822 -.75502911 .561401227        0.0   170.6241    .880836    1.16405   7.094747   9.375912    .124153
                         360.    .058021    .025726    .217279     .22786    1.04712      .0149    .008422   1926.252   38.52503
                          0.0        0.0        0.0        1.0        0.0
   5500     .0055  1399.64299 -206.47205 -1193.1709 1399.64299 -206.47205 -1193.1709 -67053.301  400188.36 -333135.06        0.0
                          0.0        0.0 1422.67855 -212.41264 -1210.2659 -67057.308 400189.244 -333131.94  1635.0912 997.853264
                   -2632.9445 1606.11505 986.698887 -2592.8139 -467241.66  733323.42 -266081.76  -.1881205  .44394084 -.25582034
                   .310140729 -.77894984 .468809166        0.0   170.6241    .880836    1.16405   7.094747   9.375912    .124153
                         360.    .058021    .025726    .217279     .22786    1.04712      .0149    .008422   1926.252   38.52503
                          0.0        0.0        0.0        1.0        0.0
   6000      .006  1293.29516 30.2462385 -1323.5414 1293.29516 30.2462385 -1323.5414 -132459.69 419293.211 -286833.53        0.0
                          0.0        0.0 1315.03931 28.0034856 -1343.0428 -132463.44  419293.44   -286830. 1287.03583 1371.04628
                   -2658.0821 1263.04892 1353.78764 -2616.8366  -551752.9 706126.736 -154373.84  -.2490056 .444589928 -.19558433
                   .419016761 -.78369021 .364673516        0.0   170.6241    .880836    1.16405   7.094747   9.375912    .124153
                         360.    .058021    .025726    .217279     .22786    1.04712      .0149    .008422   1926.252   38.52503
                          0.0        0.0        0.0        1.0        0.0
   6500     .0065  1155.10169 266.220023 -1421.3217 1155.10169 266.220023 -1421.3217 -194604.48 428073.672  -233469.2        0.0
                          0.0        0.0 1175.01987  267.72982 -1442.7497 -194607.89  428073.24 -233465.35  907.29005 1710.47951
                   -2617.7696 888.881671 1687.54174 -2576.4234 -622678.15 661542.869  -38864.72 -.30375835 .434291238 -.13053288
                   .517575244 -.76913357 .251558208        0.0   170.6241    .880836    1.16405   7.094747   9.375912    .124153
                         360.    .058021    .025726    .217279     .22786    1.04712      .0149    .008422   1926.252   38.52503
                          0.0        0.0        0.0        1.0        0.0
   7000      .007  988.466078   495.6384 -1484.1045 988.466078   495.6384 -1484.1045 -251957.46  426313.54 -174356.08        0.0
                          0.0        0.0 1006.06707 500.864041 -1506.9311 -251960.44 426312.457 -174352.02 505.203025 2007.79515
                   -2512.9982 492.827678 1979.74288 -2472.5706   -678271.  600669.62 77601.3798  -.3510323  .41329922 -.06226692
                   .603389398 -.73563825 .132248853        0.0   170.6241    .880836    1.16405   7.094747   9.375912    .124153
                         360.    .058021    .025726    .217279     .22786    1.04712      .0149    .008422   1926.252   38.52503
                          0.0        0.0        0.0        1.0        0.0
   7500     .0075  797.491015 712.852628 -1510.3436 797.491015 712.852628 -1510.3436 -303106.41 414056.151 -110949.74        0.0
                          0.0        0.0 812.341381  721.66537 -1534.0068 -303108.89 414054.446 -110945.55 90.6760115 2255.67212
                   -2346.3481 84.6383872 2223.19627 -2307.8347 -717162.56 525005.892 192156.669 -.38966237 .382130256 .007532113
                   .674346096 -.68402909 .009682999        0.0   170.6241    .880836    1.16405   7.094747   9.375912    .124153
                         360.    .058021    .025726    .217279     .22786    1.04712      .0149    .008422   1926.252   38.52503
                          0.0        0.0        0.0        1.0        0.0
   8000      .008  586.878428 912.514338 -1499.3928 586.878428 912.514338 -1499.3928 -346791.88 391603.327  -44811.45        0.0
                          0.0        0.0 598.613789 924.696633 -1523.3104  -346793.8  391601.04 -44807.245 -326.08284 2448.00706
                   -2121.9242 -325.63591  2411.9071 -2086.2712  -738395.2 436414.776 301980.428 -.41869767 .341551984 .077145689
                   .728698148 -.61557684 -.11312131        0.0   170.6241    .880836    1.16405   7.094747   9.375912    .124153
                         360.    .058021    .025726    .217279     .22786    1.04712      .0149    .008422   1926.252   38.52503
                          0.0        0.0        0.0        1.0        0.0
   8500     .0085  361.816124 1089.70638 -1451.5225 361.816124 1089.70638 -1451.5225 -381938.18 359507.929 22430.2484        0.0
                          0.0        0.0 370.145708 1104.95906 -1475.1048 -381939.48 359505.117 22434.3679 -734.81336 2580.06384
                   -1845.2505 -727.89025 2541.22888 -1813.3386 -741446.11 337077.681 404368.426 -.43742325 .292563571 .144859684
                   .765107169 -.53196717 -.23313995        0.0   170.6241    .880836    1.16405   7.094747   9.375912    .124153
                         360.    .058021    .025726    .217279     .22786    1.04712      .0149    .008422   1926.252   38.52503
                          0.0        0.0        0.0        1.0        0.0
   9000      .009  127.844305 1240.06637 -1367.9107 127.844305 1240.06637 -1367.9107 -407679.89 318560.253 89119.6392        0.0
                          0.0        0.0 132.563854 1258.01357 -1390.5774 -407680.56 318556.985  89123.572 -1125.4497 2648.59099
                   -1523.1413 -1112.2221 2607.97705  -1495.755 -726240.15 229440.614 496799.531 -.44537811 .236371311 .209006796
                   .782676732 -.43525853 -.34741819        0.0   170.6241    .880836    1.16405   7.094747   9.375912    .124153
                         360.    .058021    .025726    .217279     .22786    1.04712      .0149    .008422   1926.252   38.52503
                          0.0        0.0        0.0        1.0        0.0
   9500     .0095  -109.27589  1359.8921 -1250.6162 -109.27589  1359.8921 -1250.6162 -423383.17 269768.565 153614.608        0.0
                          0.0        0.0 -108.28216  1380.0916 -1271.8094 -423383.18 269764.922 153618.258 -1488.3738 2651.90103
                   -1163.5273  -1469.168 2610.50831 -1141.3403 -693151.74 116153.957  576997.78 -.44236606 .174358703 .268007354
                   .780974208 -.32783246 -.45314169        0.0   170.6241    .880836    1.16405   7.094747   9.375912    .124153
                         360.    .058021    .025726    .217279     .22786    1.04712      .0149    .008422   1926.252   38.52503
                          0.0        0.0        0.0        1.0        0.0
  10000       .01  -343.70491 1446.23254 -1102.5276 -343.70491 1446.23254 -1102.5276 -428661.36  214334.28 214327.075        0.0
                          0.0        0.0 -346.46216 1468.18728 -1121.7251 -428660.71 214330.353 214330.352 -1814.6494 2589.91239
                   -775.26295 -1789.9374 2548.76016 -758.82271 -642995.64 7.20523312 642988.431 -.42846183 .108052972 .320408856
                   .760041481 -.21233414 -.54770734        0.0   170.6241    .880836    1.16405   7.094747   9.375912    .124153
                         360.    .058021    .025726    .217279     .22786    1.04712      .0149    .008422   1926.252   38.52503
                          0.0        0.0        0.0        1.0        0.0
  10500     .0105   -569.6708  1496.9619  -927.2911  -569.6708  1496.9619  -927.2911 -423384.47 153622.375 269762.099        0.0
                          0.0        0.0 -576.11097 1520.13128 -944.02031 -423383.18 153618.258 269764.922 -2096.2423  2464.1516
                   -367.90934 -2066.6327   2424.253  -357.6203 -577006.85 -116139.72 693146.573 -.40400723 .039086509 .364920718
                    .72039403 -.09160731 -.62878673        0.0   170.6241    .880836    1.16405   7.094747   9.375912    .124153
                         360.    .058021    .025726    .217279     .22786    1.04712      .0149    .008422   1926.252   38.52503
                          0.0        0.0        0.0        1.0        0.0
  11000      .011  -781.60977 1510.83128  -729.2215 -781.60977 1510.83128  -729.2215 -407682.46 89127.7763 318554.685        0.0
                          0.0        0.0 -791.57375 1534.64444 -743.07069 -407680.56  89123.572 318556.985 -2326.2182 2277.71513
                   48.5030578  -2292.441 2240.05278 52.3882745 -496810.24 -229426.91 726237.146 -.36960475 -.03084233 .400447083
                   .663008102 .031375196 -.69438318        0.0   170.6241    .880836    1.16405   7.094747   9.375912    .124153
                         360.    .058021    .025726    .217279     .22786    1.04712      .0149    .008422   1926.252   38.52503
                          0.0        0.0        0.0        1.0        0.0
  11500     .0115  -974.30259 1487.49876 -513.19617 -974.30259 1487.49876 -513.19617 -381941.95 22438.5557 359503.396        0.0
                          0.0        0.0 -987.54589 1511.36987 -523.82398 -381939.48 22434.3679 359505.117 -2498.9158 2035.19385
                   463.721911 -2461.8013 2000.69493 461.106417 -404380.51 -337064.84 741445.349 -.32610111 -.10001187 .426112978
                   .589296698 .153585078 -.74288178        0.0   170.6241    .880836    1.16405   7.094747   9.375912    .124153
                         360.    .058021    .025726    .217279     .22786    1.04712      .0149    .008422   1926.252   38.52503
                          0.0        0.0        0.0        1.0        0.0
  12000      .012  -1143.0051 1427.53927 -284.53415 -1143.0051 1427.53927 -284.53415 -346796.77 -44803.176 391599.942        0.0
                          0.0        0.0 -1159.2012 1450.88021 -291.67905  -346793.8 -44807.245  391601.04 -2610.0814 1742.55925
                   867.522113 -2570.5444 1712.07342 858.470968 -301993.59 -436403.12 738396.709 -.27456819 -.16671857 .441286764
                   .501074918 .272012984 -.77308802        0.0   170.6241    .880836    1.16405   7.094747   9.375912    .124153
                         360.    .058021    .025726    .217279     .22786    1.04712      .0149    .008422   1926.252   38.52503
                          0.0        0.0        0.0        1.0        0.0
  12500     .0125  -1283.5629 1332.42888 -48.866019 -1283.5629 1332.42888 -48.866019 -303112.29 -110941.71 414053.997        0.0
                          0.0        0.0 -1302.3129 1354.66502 -52.352126 -303108.89 -110945.55 414054.446 -2656.9779 1407.01715
                   1249.96077 -2615.9917  1381.2949 1234.69684 -192170.59  -524995.7 717166.289 -.21627449 -.22932011 .445594601
                   .400514882 .383743313 -.78425829        0.0   170.6241    .880836    1.16405   7.094747   9.375912    .124153
                         360.    .058021    .025726    .217279     .22786    1.04712      .0149    .008422   1926.252   38.52503
                          0.0        0.0        0.0        1.0        0.0
  13000      .013  -1392.5152  1204.5098 188.005406 -1392.5152  1204.5098 188.005406 -251964.19 -174348.48 426312.669        0.0
                          0.0        0.0  -1413.357 1225.09325 188.263736 -251960.44 -174352.02 426312.457 -2638.4502 1036.82952
                   1601.62073  -2597.025  1016.5044 1580.52061 -77615.707 -600661.15 678276.857 -.15265501 -.28627522 .438930234
                   .290093027 .486024529 -.77611753        0.0   170.6241    .880836    1.16405   7.094747   9.375912    .124153
                         360.    .058021    .025726    .217279     .22786    1.04712      .0149    .008422   1926.252   38.52503
                          0.0        0.0        0.0        1.0        0.0
  13500     .0135  -1467.1793 1046.93169 420.247596 -1467.1793 1046.93169 420.247596 -194611.89 -233462.22 428074.107        0.0
                          0.0        0.0 -1489.6007 1065.35626 424.244458 -194607.89 -233465.35  428073.24  -2554.957 641.111801
                   1913.84517  -2514.111 626.684089 1887.42688 38850.3303 -661536.33 622685.996 -.08527658 -.33618133 .421457903
                   .172527988 .576338348 -.74886622        0.0   170.6241    .880836    1.16405   7.094747   9.375912    .124153
                         360.    .058021    .025726    .217279     .22786    1.04712      .0149    .008422   1926.252   38.52503
                          0.0        0.0        0.0        1.0        0.0
  14000      .014  -1505.7165 863.574654 642.141826 -1505.7165 863.574654 642.141826  -132467.6 -286827.34 419294.941        0.0
                          0.0        0.0 -1529.1648 879.386297 649.778535 -132463.44   -286830.  419293.44 -2408.5511 229.607762
                   2178.94337 -2369.2911 221.432828 2147.85831 154359.742 -706122.28 551762.541 -.01579908 -.37780916 .393608249
                   .050714721 .652460599 -.70317532        0.0   170.6241    .880836    1.16405   7.094747   9.375912    .124153
                         360.    .058021    .025726    .217279     .22786    1.04712      .0149    .008422   1926.252   38.52503
                          0.0        0.0        0.0        1.0        0.0
  14500     .0145  -1507.1778 658.953476 848.224336 -1507.1778 658.953476 848.224336 -67061.518 -333129.82 400191.342        0.0
                          0.0        0.0 -1531.0759 671.762932 859.312978 -67057.308 -333131.94 400189.244 -2202.8388 -187.55005
                   2390.38889 -2166.1313 -189.27086 2355.40215 266068.305 -733321.17  467252.86 .054068054  -.4101344 .356066342
                   -.07234716 .712517123 -.64016985        0.0   170.6241    .880836    1.16405   7.094747   9.375912    .124153
                         360.    .058021    .025726    .217279     .22786    1.04712      .0149    .008422   1926.252   38.52503
                          0.0        0.0        0.0        1.0        0.0
  % % % % % %   Suspended simulation;  plot data space exhausted;  SPY SPACE is required.   LIMBUF =  840000.
  % % % % % %   Suspended simulation;  plot data space exhausted;  SPY SPACE is required.   LIMBUF =  840000.
  +++  Time-sharing disabled.   Send  user-keyed interrupt to silence alarm.
   Current values.  INDBUF  INDBEG  LIMBUF  MFLUSH  NUMDCD  KCARD1  KCARD2
                    839994      50  840000    1000     230       1     231
Plot timespan now in memory (in sec) = 0.00000000E+00   1.49990000E-02
   ++++  Begin plot-data copy from memory to disk.   MFLUSH, INDBUF, N4, Tbeg,  Tend = 1001  839994       1  -1.00000E+00
1.00000E+19
  15000      .015  -1471.5275  438.10666  1033.4208 -1471.5275  438.10666  1033.4208 -4.1611374 -371229.54 371233.704        0.0
                          0.0        0.0 -1495.2868 447.598553 1047.68824 -.61533E-6 -371231.06  371231.06 -1942.8853 -600.08969
                   2542.97503 -1909.6341 -595.31414 2504.94826 371225.382 -742463.25 371237.865 .122603645 -.43236065 .309757008
                   -.19362793   .7550292 -.56140127        0.0   170.6241    .880836    1.16405   7.094747   9.375912    .124153
                         360.    .058021    .025726    .217279     .22786    1.04712      .0149    .008422   1926.252   38.52503
                          0.0        0.0        0.0        1.0        0.0
  15500     .0155  -1399.6433 206.472295 1193.17104 -1399.6433 206.472295 1193.17104  67053.301 -400188.36 333135.059        0.0
                          0.0        0.0 -1422.6788 212.412797   1210.266 67057.3081 -400189.24 333131.936 -1635.0916  -997.8532
                   2632.94479 -1606.1156 -986.69874 2592.81437 467241.661 -733323.42 266081.758 .188120386 -.44394078 .255820397
                    -.3101406 .778949905 -.46880933        0.0   170.6241    .880836    1.16405   7.094747   9.375912    .124153
                         360.    .058021    .025726    .217279     .22786    1.04712      .0149    .008422   1926.252   38.52503
                          0.0        0.0        0.0        1.0        0.0
  16000      .016  -1293.2955 -30.246065 1323.54156 -1293.2955 -30.246065 1323.54156 132459.687 -419293.21 286833.524        0.0
                          0.0        0.0 -1315.0397 -28.003254 1343.04293 132463.443 -419293.44 286829.997 -1287.0364 -1371.0462
                   2658.08261 -1263.0494 -1353.7876 2616.83705 551752.899 -706126.74 154373.837 .249005097 -.44458968 .195584581
                   -.41901685 .783690297 -.36467357        0.0   170.6241    .880836    1.16405   7.094747   9.375912    .124153
                         360.    .058021    .025726    .217279     .22786    1.04712      .0149    .008422   1926.252   38.52503
                          0.0        0.0        0.0        1.0        0.0
  16500     .0165   -1155.102 -266.21986 1421.32183  -1155.102 -266.21986 1421.32183 194604.476 -428073.67 233469.196        0.0
                          0.0        0.0 -1175.0202  -267.7297 1442.74985 194607.888 -428073.24 233465.353 -907.29045 -1710.4795
                      2617.77 -888.88211 -1687.5417  2576.4238 622678.148 -661542.87 38864.7205 .303758317 -.43429122 .130532903
                   -.51757542 .769133642 -.25155834        0.0   170.6241    .880836    1.16405   7.094747   9.375912    .124153
                         360.    .058021    .025726    .217279     .22786    1.04712      .0149    .008422   1926.252   38.52503
                          0.0        0.0        0.0        1.0        0.0
  17000      .017  -988.46623 -495.63837  1484.1046 -988.46623 -495.63837  1484.1046 251957.456 -426313.54 174356.082        0.0
                          0.0        0.0 -1006.0672 -500.86396 1506.93119 251960.441 -426312.46 174352.016 -505.20328 -2007.7951
                   2512.99842 -492.82787  -1979.743 2472.57083 678270.994 -600669.62 -77601.374 .351031933 -.41329904 .062267104
                    -.6033894 .735638359 -.13224884        0.0   170.6241    .880836    1.16405   7.094747   9.375912    .124153
                         360.    .058021    .025726    .217279     .22786    1.04712      .0149    .008422   1926.252   38.52503
                          0.0        0.0        0.0        1.0        0.0
  17500     .0175  -797.49122 -712.85255 1510.34377 -797.49122 -712.85255 1510.34377  303106.41 -414056.15 110949.741        0.0
                          0.0        0.0  -812.3421 -721.66508 1534.00718 303108.891 -414054.45 110945.554 -90.677017 -2255.6723
                   2346.34928  -84.63867 -2223.1963 2307.83499 717162.561 -525005.89 -192156.67 .389662332 -.38213024 -.00753209
                    -.6743461 .684029194  -.0096831        0.0   170.6241    .880836    1.16405   7.094747   9.375912    .124153
                         360.    .058021    .025726    .217279     .22786    1.04712      .0149    .008422   1926.252   38.52503
                          0.0        0.0        0.0        1.0        0.0
  18000      .018  -586.87969  -912.5138 1499.39349 -586.87969  -912.5138 1499.39349 346791.876 -391603.33 44811.4501        0.0
                          0.0        0.0 -598.61408 -924.69653 1523.31061 346793.795 -391601.04 44807.2448 326.082454 -2448.0071
                   2121.92469 325.634113 -2411.9073 2086.27318 738395.202 -436414.78 -301980.43 .418697442 -.34155187 -.07714557
                   -.72869817 .615577009 .113121165        0.0   170.6241    .880836    1.16405   7.094747   9.375912    .124153
                         360.    .058021    .025726    .217279     .22786    1.04712      .0149    .008422   1926.252   38.52503
                          0.0        0.0        0.0        1.0        0.0
  18500     .0185  -361.81634 -1089.7063 1451.52268 -361.81634 -1089.7063 1451.52268 381938.176 -359507.93 -22430.248        0.0
                          0.0        0.0 -370.14619 -1104.9589 1475.10509 381939.485 -359505.12 -22434.368 734.812715  -2580.064
                   1845.25128 727.889998  -2541.229 1813.33901 741446.105 -337077.68 -404368.42 .437423196 -.29256354 -.14485965
                   -.76510718 .531967263 .233139863        0.0   170.6241    .880836    1.16405   7.094747   9.375912    .124153
                         360.    .058021    .025726    .217279     .22786    1.04712      .0149    .008422   1926.252   38.52503
                          0.0        0.0        0.0        1.0        0.0
  19000      .019  -127.84439 -1240.0664 1367.91083 -127.84439 -1240.0664 1367.91083  407679.89 -318560.25 -89119.638        0.0
                          0.0        0.0 -132.56404 -1258.0136 1390.57761 407680.557 -318556.98 -89123.572 1125.44952 -2648.5912
                   1523.14165 1112.22204 -2607.9773 1495.75522 726240.142 -229440.61 -496799.53 .445378111 -.23637132  -.2090068
                    -.7826768 .435258693 .347418188        0.0   170.6241    .880836    1.16405   7.094747   9.375912    .124153
                         360.    .058021    .025726    .217279     .22786    1.04712      .0149    .008422   1926.252   38.52503
                          0.0        0.0        0.0        1.0        0.0
  19500     .0195  109.275672 -1359.8921 1250.61643 109.275672 -1359.8921 1250.61643 423383.173 -269768.57 -153614.61        0.0
                          0.0        0.0 108.282001 -1380.0916 1271.80959  423383.18 -269764.92 -153618.26 1488.37359 -2651.9012
                   1163.52759 1469.16777 -2610.5085 1141.34076 693151.738 -116153.96 -576997.78 .442366317 -.17435883 -.26800748
                   -.78097429 .327832661 .453141746        0.0   170.6241    .880836    1.16405   7.094747   9.375912    .124153
                         360.    .058021    .025726    .217279     .22786    1.04712      .0149    .008422   1926.252   38.52503
                          0.0        0.0        0.0        1.0        0.0
  20000       .02  343.704733 -1446.2325 1102.52781 343.704733 -1446.2325 1102.52781 428661.356 -214334.28 -214327.08        0.0
                          0.0        0.0 346.461933 -1468.1873 1121.72536 428660.705 -214330.35 -214330.35 1814.64922 -2589.9127
                   775.263426 1789.93727 -2548.7603 758.823074 642995.637 -7.2052325 -642988.43 .428461805 -.10805296 -.32040884
                   -.76004162 .212334245 .547707321        0.0   170.6241    .880836    1.16405   7.094747   9.375912    .124153
                         360.    .058021    .025726    .217279     .22786    1.04712      .0149    .008422   1926.252   38.52503
                          0.0        0.0        0.0        1.0        0.0
  20500     .0205  569.670785  -1496.962 927.291254 569.670785  -1496.962 927.291254 423384.475 -153622.38  -269762.1        0.0
                          0.0        0.0 576.110809 -1520.1313 944.020504  423383.18 -153618.26 -269764.92 2096.24212 -2464.1518
                   367.909694 2066.63282 -2424.2533 357.620469 577006.851 116139.724 -693146.58 .404007242 -.03908652 -.36492073
                   -.72039423 .091607404 .628786717        0.0   170.6241    .880836    1.16405   7.094747   9.375912    .124153
                         360.    .058021    .025726    .217279     .22786    1.04712      .0149    .008422   1926.252   38.52503
                          0.0        0.0        0.0        1.0        0.0
  21000      .021  781.609698 -1510.8314 729.221659 781.609698 -1510.8314 729.221659 407682.461 -89127.776 -318554.68        0.0
                          0.0        0.0 791.574137 -1534.6448  743.07066 407680.557 -89123.572 -318556.98 2326.21893 -2277.7155
                   -48.503476 2292.44106  -2240.053 -52.388039 496810.237 229426.909 -726237.15 .369604742 .030842337 -.40044708
                   -.66300821  -.0313751 .694383197        0.0   170.6241    .880836    1.16405   7.094747   9.375912    .124153
[...]
                         360.    .058021    .025726    .217279     .22786    1.04712      .0149    .008422   1926.252   38.52503
                          0.0        0.0        0.0        1.0        0.0
 113000      .113  -250062.02 -180667.41 430729.426 -250062.02 -180667.41 430729.426 -250062.02 -180667.41 430729.426        0.0
                          0.0        0.0 -245012.89 -198160.11 443173.001 -251960.44 -174352.02 426312.457  -46852.78 -641333.11
                   688185.891 -69394.615 -611396.83 680791.447 -69394.615 -611396.83 680791.447 89.2100175 67.6607608 -156.87078
                   -139.80399 251.257767 -111.45378        0.0   170.6241    .880836    1.16405   7.094747   9.375912    .124153
                         360.    .058021    .025726    .217279     .22786    1.04712      .0149    .008422   1926.252   38.52503
                          0.0        0.0        0.0        1.0        0.0
 113500     .1135   -197538.8 -230989.04 428527.834  -197538.8 -230989.04 428527.834  -197538.8 -230989.04 428527.834        0.0
                          0.0        0.0 -206943.43 -217243.75 424187.177 -194607.89 -233465.35  428073.24 10300.3265 -641430.93
                   631130.602 33450.2427 -659516.87  626066.63 33450.2429 -659516.87 626066.629 120.051709 12.2918535 -132.34356
                   -157.74025 234.097244 -76.356993        0.0   170.6241    .880836    1.16405   7.094747   9.375912    .124153
                         360.    .058021    .025726    .217279     .22786    1.04712      .0149    .008422   1926.252   38.52503
                          0.0        0.0        0.0        1.0        0.0
 114000      .114   -132408.4 -287125.07 419533.468  -132408.4 -287125.07 419533.468  -132408.4 -287125.07 419533.467        0.0
                          0.0        0.0 -141843.02 -277546.28 419389.302 -132463.44   -286830.  419293.44 135703.261 -696935.58
                   561232.323 154716.664 -706658.53 551941.869 154716.665 -706658.53 551941.869 157.110537 -60.427527 -96.683009
                   -170.77896 212.492519  -41.71359        0.0   170.6241    .880836    1.16405   7.094747   9.375912    .124153
                         360.    .058021    .025726    .217279     .22786    1.04712      .0149    .008422   1926.252   38.52503
                          0.0        0.0        0.0        1.0        0.0
 114500     .1145  -57904.601 -349776.46 407681.058 -57904.601 -349776.46 407681.058   -57904.6 -349776.46 407681.058        0.0
                          0.0        0.0 -67961.143 -340608.57  408569.71 -67057.308 -333131.94 400189.244 272647.423 -749178.28
                   476530.853 291871.856 -757457.51 465585.658 291871.857 -757457.51 465585.658 224.670976 -172.65755 -52.013423
                   -178.72757 187.093016 -8.3654369        0.0   170.6241    .880836    1.16405   7.094747   9.375912    .124153
                         360.    .058021    .025726    .217279     .22786    1.04712      .0149    .008422   1926.252   38.52503
                          0.0        0.0        0.0        1.0        0.0
 115000      .115  -3462.1716 -373613.05 377075.222 -3462.1716 -373613.05 377075.222 -3462.1712 -373613.05 377075.222        0.0
                          0.0        0.0 1793.84187  -398808.6 397014.758 .127058E-4 -371231.06  371231.06 400602.441 -795823.36
                   395220.916 370150.879 -750688.27 380537.393 370150.879 -750688.27 380537.393 208.227885 -101.49323 -106.73466
                    -180.8406 157.438179 23.4024335        0.0   170.6241    .880836    1.16405   7.094747   9.375912    .124153
                         360.    .058021    .025726    .217279     .22786    1.04712      .0149    .008422   1926.252   38.52503
                          0.0        0.0        0.0        1.0        0.0
 115500     .1155  73478.5089 -414004.53 340526.016 73478.5089 -414004.53 340526.016 73478.5091 -414004.53 340526.016        0.0
                          0.0        0.0 74666.7994 -426098.48  351431.68 67057.3081 -400189.24 333131.936 500765.278 -777530.16
                    276764.88 487483.034 -754530.54 267047.508 487483.034 -754530.54 267047.507 146.511736 59.5806998 -206.09244
                   -177.25346 124.694996 52.5584537        0.0   170.6241    .880836    1.16405   7.094747   9.375912    .124153
                         360.    .058021    .025726    .217279     .22786    1.04712      .0149    .008422   1926.252   38.52503
                          0.0        0.0        0.0        1.0        0.0
 116000      .116  130383.712 -415748.81 285365.095 130383.712 -415748.81 285365.095 130383.712 -415748.81 285365.094        0.0
                          0.0        0.0  129256.64 -422389.95  293133.31 132463.443 -419293.44 286829.997 551646.591 -715523.26
                    163876.67 546132.519  -701113.9 154981.383 546132.519  -701113.9 154981.382 120.026616 110.505779 -230.53239
                   -168.44032 90.6169729 77.8233433        0.0   170.6241    .880836    1.16405   7.094747   9.375912    .124153
                         360.    .058021    .025726    .217279     .22786    1.04712      .0149    .008422   1926.252   38.52503
                          0.0        0.0        0.0        1.0        0.0
 116500     .1165  198709.641 -431901.34 233191.695 198709.641 -431901.34 233191.695 198709.641 -431901.34 233191.695        0.0
                          0.0        0.0 192297.878   -415204. 222906.118 194607.888 -428073.24 233465.353 607501.873 -638110.11
                   30608.2403 630610.977 -665093.03 34482.0544 630610.977 -665093.03 34482.0537 129.745215 82.7672339 -212.51245
                   -154.62758 55.8914103 98.7361383        0.0   170.6241    .880836    1.16405   7.094747   9.375912    .124153
                         360.    .058021    .025726    .217279     .22786    1.04712      .0149    .008422   1926.252   38.52503
                          0.0        0.0        0.0        1.0        0.0
 117000      .117  249976.627 -422435.05 172458.424 249976.627 -422435.05 172458.424 249976.627 -422435.05 172458.424        0.0
                          0.0        0.0 253614.657 -424122.43 170507.768 251960.441 -426312.46 174352.016 677737.082 -594630.19
                   -83106.889 672411.678 -594893.47 -77518.203 672411.678 -594893.47 -77518.203 189.523542 -58.514279 -131.00926
                   -136.22988 21.5481813 114.681702        0.0   170.6241    .880836    1.16405   7.094747   9.375912    .124153
                         360.    .058021    .025726    .217279     .22786    1.04712      .0149    .008422   1926.252   38.52503
                          0.0        0.0        0.0        1.0        0.0
 117500     .1175  305432.372 -420490.28 115057.906 305432.372 -420490.28 115057.906 305432.372 -420490.28 115057.906        0.0
                          0.0        0.0 309780.521 -432753.87 122973.353 303108.891 -414054.45 110945.554 742534.396 -555727.23
                   -186807.17  725922.65 -535548.18 -190374.47 725922.651 -535548.18 -190374.47 176.261245 -25.439799 -150.82145
                   -113.11158 -12.956906 126.068456        0.0   170.6241    .880836    1.16405   7.094747   9.375912    .124153
                         360.    .058021    .025726    .217279     .22786    1.04712      .0149    .008422   1926.252   38.52503
                          0.0        0.0        0.0        1.0        0.0
 118000      .118  353503.796 -404078.83 50575.0343 353503.796 -404078.83 50575.0343 353503.797 -404078.83 50575.0339        0.0
                          0.0        0.0 361069.607 -419959.09 58889.4812 346793.795 -391601.04 44807.2447 781028.695 -478848.57
                   -302180.13 757582.627 -454653.86 -302928.76 757582.627 -454653.86 -302928.76 142.377645 54.5996608 -196.97731
                   -86.095114 -46.170985 132.266091        0.0   170.6241    .880836    1.16405   7.094747   9.375912    .124153
                         360.    .058021    .025726    .217279     .22786    1.04712      .0149    .008422   1926.252   38.52503
                          0.0        0.0        0.0        1.0        0.0
 118500     .1185  375617.542 -349522.72 -26094.825 375617.542 -349522.72 -26094.825 375617.542 -349522.72 -26094.825        0.0
                          0.0        0.0 386665.545 -369919.62 -16745.925 381939.485 -359505.12 -22434.368 756585.165 -353173.69
                   -403411.47 725140.259 -323427.89 -401712.37 725140.259 -323427.89 -401712.37 67.1681323 201.462663  -268.6308
                   -55.740971 -77.393333 133.134366        0.0   170.6241    .880836    1.16405   7.094747   9.375912    .124153
                         360.    .058021    .025726    .217279     .22786    1.04712      .0149    .008422   1926.252   38.52503
                          0.0        0.0        0.0        1.0        0.0
 119000      .119  407099.417 -315076.11 -92023.311 407099.417 -315076.11 -92023.311 407099.417 -315076.11 -92023.312        0.0
                          0.0        0.0 405270.051 -298012.79 -107257.26 407680.557 -318556.98 -89123.572 703282.841 -190755.53
                   -512527.31 722175.522 -223052.79 -499122.73 722175.522 -223052.79 -499122.73 37.4389751 219.105704 -256.54468
                   -23.215948 -104.91526 128.131168        0.0   170.6241    .880836    1.16405   7.094747   9.375912    .124153
                         360.    .058021    .025726    .217279     .22786    1.04712      .0149    .008422   1926.252   38.52503
                          0.0        0.0        0.0        1.0        0.0
 119500     .1195  423783.155 -262293.41 -161489.74 423783.155 -262293.41 -161489.74 423783.155 -262293.41 -161489.75        0.0
                          0.0        0.0 427346.818 -261144.74 -166202.08  423383.18 -269764.92 -153618.26 688491.558 -94942.662
                    -593548.9 686076.566 -100803.67  -585272.9 686076.566 -100803.67  -585272.9 71.9727002 109.418895  -181.3916
                   10.5855556 -128.06802 117.482467        0.0   170.6241    .880836    1.16405   7.094747   9.375912    .124153
                         360.    .058021    .025726    .217279     .22786    1.04712      .0149    .008422   1926.252   38.52503
                          0.0        0.0        0.0        1.0        0.0
  % % % % % %   Suspended simulation;  plot data space exhausted;  SPY SPACE is required.   LIMBUF =  840000.
  % % % % % %   Suspended simulation;  plot data space exhausted;  SPY SPACE is required.   LIMBUF =  840000.
  +++  Time-sharing disabled.   Send  user-keyed interrupt to silence alarm.
   Current values.  INDBUF  INDBEG  LIMBUF  MFLUSH  NUMDCD  KCARD1  KCARD2
                    839994      50  840000    1007     230       1     231
Plot timespan now in memory (in sec) = 1.04985997E-01   1.19985000E-01
   ++++  Begin plot-data copy from memory to disk.   MFLUSH, INDBUF, N4, Tbeg,  Tend = 1008  839994       1  -1.00000E+00
1.00000E+19
 120000       .12  429433.929 -214891.49 -214542.44 429433.929 -214891.49 -214542.44 429433.929 -214891.49 -214542.44        0.0
                          0.0        0.0  429723.79 -205612.27 -224111.52 428660.705 -214330.35 -214330.35 635336.058 18499.2535
                   -653835.31 644325.418 -349.04825 -643976.37 644325.418 -349.04786 -643976.37 82.6173805 55.3528542 -137.97024
                   45.2497413 -147.15641 101.906699        0.0   170.6241    .880836    1.16405   7.094747   9.375912    .124153
                         360.    .058021    .025726    .217279     .22786    1.04712      .0149    .008422   1926.252   38.52503
                          0.0        0.0        0.0        1.0        0.0

Extrema of output variables follow.   Order and column positioning are the same as for the preceding time-step loop output.
Variable maxima :  444345.654 470164.186 446198.876 444345.654 470164.186 446198.876 509394.499 470164.186 446198.876        0.0
                          0.0        0.0  458245.78 514833.395 472587.164 428660.705 428660.703 428660.703 821265.354 826129.598
                    766549.28 789985.975 769190.834 759817.453 920790.401 769190.834 759817.453 712.659372 443.288444 146.179573
                   279.756403  287.45481 133.618594        0.0   170.6241    .880836    1.16405   7.094747   9.375912    .124153
                         360.    .058021    .025726    .217279     .22786    1.04712      .0149    .008422   1926.252   38.52503
                          0.0        0.0        0.0        1.0        0.0
Times of maxima :     .079539    .066771    .073452    .079539    .066771    .073452    .059197    .066771    .073452        0.0
                          0.0        0.0    .079523    .066507    .073817        0.0    .006667    .113333    .098637    .085936
                      .071142    .098625    .105384    .071529    .059195    .105384    .071529    .059142    .082777    .067888
                      .065083    .071553    .118321        0.0        0.0        0.0        0.0        0.0        0.0        0.0
                          0.0        0.0        0.0        0.0        0.0        0.0        0.0        0.0        0.0        0.0
                          0.0        0.0        0.0        0.0        0.0
Variable minima :  -452809.73 -461178.09 -441264.03 -452809.73 -461178.09 -441264.03 -452809.73 -461178.09 -441264.03        0.0
                          0.0        0.0 -487943.31 -511614.49 -478190.02 -428660.71  -428660.7  -428660.7 -829952.91  -827274.7
                   -761174.43 -786179.15 -768164.64  -752626.7 -786179.15 -768164.64 -786430.22 -180.03347 -644.36163 -389.17579
                   -180.84408 -169.67963 -347.04659        0.0   170.6241    .880836    1.16405   7.094747   9.375912    .124153
                         360.    .058021    .025726    .217279     .22786    1.04712      .0149    .008422   1926.252   38.52503
                          0.0        0.0        0.0        1.0        0.0
Times of minima :      .07041    .076229    .083721     .07041    .076229    .083721     .07041    .076229    .083721        0.0
                          0.0        0.0    .069852    .076767    .083376        .01    .016667    .103333    .088898    .115071
                      .101967    .108638    .115075    .081764    .108638    .115075    .061414    .065917     .05827    .077369
                      .114987     .10172    .068085        0.0        0.0        0.0        0.0        0.0        0.0        0.0
                          0.0        0.0        0.0        0.0        0.0        0.0        0.0        0.0        0.0        0.0
                          0.0        0.0        0.0        0.0        0.0

Blank card terminating all plot cards.            |BLANK PLOT

Memory storage figures for the preceding, now-completed data case.  -------------------------------  Present   Program
A value of  "-9999"  indicates that no figure is available.         28-Feb-22  20:05:31              figure     limit  (name)
     Size List 1.   Number of electric network nodes.                                                   37      6000  (LBUS)
     Size List 2.   Number of electric network branches.                                                39     10000  (LBRNCH)
     Size List 3.   Number of data values in R, L, C tables.                                            45    192000  (LDATA)
     Size List 4.   Number of electric network sources.                                                  3       900  (LEXCT)
     Size List 5.   Storage for [Y] and triangularized [Y].   No. times =    3     Factors =    66     189    420000  (LYMAT)
     Size List 6.   Number of entries in switch table.                  No. flops = 18                  21      1200  (LSWTCH)
     Size List 7.   Number of distinct ALPHANUMERIC data names plus program SPY variables.              25     15000  (LSIZE7)
     Size List 8.   History points of distributed lines.                                              2029    120000  (LPAST)
     Size List 9.   Number of nonlinear elements.                                                        0      2250  (LNONL)
     Size List 10.  Points of nonlinear characteristics.                                                 0      3800  (LCHAR)
     Size List 11.  Number of Type-59 S.M. outputs.                                                      0       720  (LSMOUT)
     Size List 12.  Total number of EMTP output variables.                                              55      2000  (LSIZ12)
     Size List 13.  Working space for batch/SPY plotting.                                            -9999     72800  (LSIZ13)
     Size List 14.  S.M./U.M. connections to TACS.                                                   -9999       510  (LBSTAC)
     Size List 15.  Character storage in bytes for MODELS.                                            3294     90000  (LCTACS)
     Size List 16.  Total number of Type-59 S.M. masses.                                                 0       800  (LIMASS)
     Size List 17.  Number of Type-59 Synchronous machines.                                              0        90  (LSYN)
     Size List 18.  Branch and switch power/energy outputs.                                              0       254  (MAXPE)
     Size List 19.  Total floating-point TACS table space.                                              23    120000  (LTACST)
     Size List 20.  Non-copied recursive convolution data.                                               0    100000  (LFSEM)
     Size List 21.  Total modal/phase [T] matrix storage.                                                9      3000  (LFD)
     Size List 22.  Total recursive convolution history.                                                 0     15000  (LHIST)
     Size List 23.  Giant vectors for renumbering, phasors;  also extrema accumulation.                  93    192000  (LSIZ23)
     Size List 24.  Peak phases of compensation for data.                                                0       120  (LCOMP)
     Size List 25.  Total table space for all U.M usage.                                             -9999     45000  (LSPCUM)
     Size List 26.  Square of max number of coupled phases.                                              9    260000  (LSIZ26)
     Size List 27.  Maximum number of MODELS top variables.                                             44       600  (LSIZ27)
     Size List 28.  MODELS.  Total work space is divided into INTEGER and REAL.  1st, REAL:           1780    210000  (LRTACS)
                             Second  and last,  statistics for INTEGER work space.                    6838         0  (LITACS)
     Size List 29.  RAM disk used by "TAPSAV" table saving (limit is "LABCOM" size LTLABL).          -9999       600  (LSIZ29)
     Size List 30.  Taku Noda frequency-dependent circuits.                                              0        19  (LSIZ30)
Timing figures characterizing central processor (CP) solution speed.  ----------------------------   CP sec  Wait sec  Real sec
     Data input time (through blank card ending branches) ....                                       0.000     0.000     0.000
     Node renumbering and phasor solution  ....                                                      0.016     0.000     0.016
     After phasor solution, but before time-step loop  ....                                          0.000     0.000     0.000
     Integration of equations (time-step loop)  ....                                                 1.000     0.000     1.000
     Plotting or STATISTICS termination overlays ....                                                0.016     0.000     0.016
                                                                                                    ---------------------------
                                                                                          Totals      1.031     0.000     1.031

