   ---   236   cards of disk file read into card cache cells  1   onward.
 Comment card is ignored.      |C   LBUS  LBRNCH   LDATA   LEXCT   LYMAT  LSWTCH
 Limit CIDEAL cards =   200    |CARDS        200 { Limit of CIDEAL will be 2 mor
 1st card (Lists  1-10).       |    6000   10000  192000     900  420000    120
 Comment card is ignored.      |C LSMOUT  LSIZ12  LSIZ13  LBSTAC  LCTACS  LIMASS
 2nd card (Lists 11-20).       |     720    2000   72800     510   90000     80
 Comment card is ignored.      |C    LFD   LHIST  LSIZ23   NCOMP  LSPCUM  LSIZ26
 3rd card (Lists 21-30).       |    3000   15000  192000     120   45000  26000
 4th card (Lists 31-32).       |     200     300     { Optional card for Lists
 Comment card is ignored.      |C  LWORK  LMARTI
 Supplemental offsets.         |  840000     742
 <===> Done with  "/"-card sorting by data class.    Remember that the source file appears different from interpreted input data.
Alternative Transients Program (ATP),  GNU Linux or DOS.  All rights reserved by Can/Am user group of Portland, Oregon, USA.
 Date (dd-mth-yy) and time of day (hh.mm.ss) = 28-Feb-22  19:25:39   Name of disk plot file is  tp\bdfinalisima\energizacion938.pl4
Consult the 860-page ATP Rule Book of the Can/Am EMTP User Group in Portland,  Oregon, USA.  Source code date is 12 August 2008.
Total size of LABCOM tables = 10913436 INTEGER words.  31 VARDIM  List Sizes follow:  6002  10K  192K  900  420K  1200  15K
  120K  2250  3800  720  2K  72800  510  90K  800  90  254  120K  100K  3K  15K  192K  120  45K  260K  600  210K  1100  60  200
--------------------------------------------------+--------------------------------------------------------------------------------
Descriptive interpretation of input data cards.   |  Input data card images are shown below, all 80 columns, character by character
                                                  0         1         2         3         4         5         6         7         8
                                                  012345678901234567890123456789012345678901234567890123456789012345678901234567890
--------------------------------------------------+--------------------------------------------------------------------------------
Comment card.   NUMDCD = 1.                       |C data:D:\ATP\BDFINALISIMA\ENERGIZACION938.ATP
Marker card preceding new EMTP data case.         |BEGIN NEW DATA CASE
Comment card.   NUMDCD = 3.                       |C --------------------------------------------------------
Comment card.   NUMDCD = 4.                       |C Generated by ATPDRAW  febrero, lunes 28, 2022
Comment card.   NUMDCD = 5.                       |C A Bonneville Power Administration program
Comment card.   NUMDCD = 6.                       |C by H. K. Høidalen at SEfAS/NTNU - NORWAY 1994-2016
Comment card.   NUMDCD = 7.                       |C --------------------------------------------------------
Comment card.   NUMDCD = 8.                       |C  dT  >< Tmax >< Xopt >< Copt ><Epsiln>
Misc. data.     1.000E-06   1.200E-01   5.000E+01 |   1.E-6     .12     50.
Misc. data.    500    1  0  1  1  0  0  0  0  0   |     500       1       0       1       1       0       0       0       0
  ///  Warning.  Nonzero XOPT or COPT differs from the power frequency of  6.00000000E+01  Hz.   Did the user really want this?
No TACS data,  but MODELS data begins (next).     |MODELS
      Another ordinary MODELS data card.          |OUTPUT
      Another ordinary MODELS data card.          |  AnVol
      Another ordinary MODELS data card.          |  LONG
      Another ordinary MODELS data card.          |  R0F
      Another ordinary MODELS data card.          |  R1F
      Another ordinary MODELS data card.          |  X0F
      Another ordinary MODELS data card.          |  X1F
      Another ordinary MODELS data card.          |  RDIVX
      Another ordinary MODELS data card.          |  RINSER
      Another ordinary MODELS data card.          |  CLOSE1
      Another ordinary MODELS data card.          |  RPpos
      Another ordinary MODELS data card.          |  RPcero
      Another ordinary MODELS data card.          |  LPpos
      Another ordinary MODELS data card.          |  LPcero
      Another ordinary MODELS data card.          |  CPpos
      Another ordinary MODELS data card.          |  CPcero
      Another ordinary MODELS data card.          |  Xp
      Another ordinary MODELS data card.          |  CR
      Another ordinary MODELS data card.          |  SIMET
      Another ordinary MODELS data card.          |  ENC1
      Another ordinary MODELS data card.          |  ENC2
      Another ordinary MODELS data card.          |  ENC1AS
      Another ordinary MODELS data card.          |  ENC2AS
      Another ordinary MODELS data card.          |MODEL DEFAULT
      Another ordinary MODELS data card.          |DATA AnVol,LONG,R0F,R1F,X0F,X1F,RDIVX,RINSER,CLOSE1,RPpos,RPcero,LPpos,LPcero
      Another ordinary MODELS data card.          |OUTPUT o1,o2,o3, o4, o5, o6, o7, o8, o9, o10, o11, o12, o13
      Another ordinary MODELS data card.          |VAR o1,o2,o3, o4, o5, o6, o7, o8, o9, o10, o11, o12, o13
      Another ordinary MODELS data card.          |INIT
      Another ordinary MODELS data card.          |  o1:=AnVol
      Another ordinary MODELS data card.          |  o2:=LONG
      Another ordinary MODELS data card.          |  o3:=R0F
      Another ordinary MODELS data card.          |  o4:=R1F
      Another ordinary MODELS data card.          |  o5:=X0F
      Another ordinary MODELS data card.          |  O6:=X1F
      Another ordinary MODELS data card.          |  o7:=RDIVX
      Another ordinary MODELS data card.          |  o8:=RINSER
      Another ordinary MODELS data card.          |  o9:=CLOSE1
      Another ordinary MODELS data card.          |  o10:=RPpos
      Another ordinary MODELS data card.          |  o11:=RPcero
      Another ordinary MODELS data card.          |  o12:=LPpos
      Another ordinary MODELS data card.          |  o13:=LPcero
      Another ordinary MODELS data card.          |
      Another ordinary MODELS data card.          |ENDINIT
      Another ordinary MODELS data card.          |EXEC
      Another ordinary MODELS data card.          |ENDEXEC
      Another ordinary MODELS data card.          |ENDMODEL
      Another ordinary MODELS data card.          |MODEL DEFAULT1
      Another ordinary MODELS data card.          |DATA CPpos,CPcero,Xp,CR,SIMET,ENC1,ENC2,ENC1AS,ENC2AS
      Another ordinary MODELS data card.          |OUTPUT o1, o2, o3, o4, o5, o6, o7, o8, o9
      Another ordinary MODELS data card.          |VAR o1, o2, o3, o4, o5, o6, o7, o8, o9
      Another ordinary MODELS data card.          |INIT
      Another ordinary MODELS data card.          |  o1:=CPpos
      Another ordinary MODELS data card.          |  o2:=CPcero
      Another ordinary MODELS data card.          |  o3:=Xp
      Another ordinary MODELS data card.          |  o4:=CR
      Another ordinary MODELS data card.          |  o5:=SIMET
      Another ordinary MODELS data card.          |  o6:=ENC1
      Another ordinary MODELS data card.          |  o7:=ENC2
      Another ordinary MODELS data card.          |  o8:=ENC1AS
      Another ordinary MODELS data card.          |  o9:=ENC2AS
      Another ordinary MODELS data card.          |
      Another ordinary MODELS data card.          |ENDINIT
      Another ordinary MODELS data card.          |EXEC
      Another ordinary MODELS data card.          |ENDEXEC
      Another ordinary MODELS data card.          |ENDMODEL
      Another ordinary MODELS data card.          |USE DEFAULT AS DEFAULT
      Another ordinary MODELS data card.          |DATA
      Another ordinary MODELS data card.          |  AnVol:=      0.0
      Another ordinary MODELS data card.          |  LONG:= 185.9231
      Another ordinary MODELS data card.          |  R0F:= 1.683559
      Another ordinary MODELS data card.          |  R1F:= 2.203854
      Another ordinary MODELS data card.          |  X0F:= 9.529818
      Another ordinary MODELS data card.          |  X1F:= 12.47496
      Another ordinary MODELS data card.          |  RDIVX:= 0.176662
      Another ordinary MODELS data card.          |  RINSER:=     400.
      Another ordinary MODELS data card.          |  CLOSE1:= 0.043654
      Another ordinary MODELS data card.          |  RPpos:= 0.030475
      Another ordinary MODELS data card.          |  RPcero:= 0.327008
      Another ordinary MODELS data card.          |  LPpos:= 0.422193
      Another ordinary MODELS data card.          |  LPcero:= 1.361128
      Another ordinary MODELS data card.          |OUTPUT
      Another ordinary MODELS data card.          |  AnVol:=o1
      Another ordinary MODELS data card.          |  LONG:=o2
      Another ordinary MODELS data card.          |  R0F:=o3
      Another ordinary MODELS data card.          |  R1F:=o4
      Another ordinary MODELS data card.          |  X0F:=o5
      Another ordinary MODELS data card.          |  X1F:=o6
      Another ordinary MODELS data card.          |  RDIVX:=o7
      Another ordinary MODELS data card.          |  RINSER:=o8
      Another ordinary MODELS data card.          |  CLOSE1:=o9
      Another ordinary MODELS data card.          |  RPpos:=o10
      Another ordinary MODELS data card.          |  RPcero:=o11
      Another ordinary MODELS data card.          |  LPpos:=o12
      Another ordinary MODELS data card.          |  LPcero:=o13
      Another ordinary MODELS data card.          |ENDUSE
      Another ordinary MODELS data card.          |USE DEFAULT1 AS DEF
      Another ordinary MODELS data card.          |DATA
      Another ordinary MODELS data card.          |  CPpos:= 0.010767
      Another ordinary MODELS data card.          |  CPcero:= 0.007282
      Another ordinary MODELS data card.          |  Xp:= 2446.216
      Another ordinary MODELS data card.          |  CR:= 48.92433
      Another ordinary MODELS data card.          |  SIMET:=       1.
      Another ordinary MODELS data card.          |  ENC1:=       1.
      Another ordinary MODELS data card.          |  ENC2:=       1.
      Another ordinary MODELS data card.          |  ENC1AS:=      0.0
      Another ordinary MODELS data card.          |  ENC2AS:=      0.0
      Another ordinary MODELS data card.          |OUTPUT
      Another ordinary MODELS data card.          |  CPpos:=o1
      Another ordinary MODELS data card.          |  CPcero:=o2
      Another ordinary MODELS data card.          |  Xp:=o3
      Another ordinary MODELS data card.          |  CR:=o4
      Another ordinary MODELS data card.          |  SIMET:=o5
      Another ordinary MODELS data card.          |  ENC1:=o6
      Another ordinary MODELS data card.          |  ENC2:=o7
      Another ordinary MODELS data card.          |  ENC1AS:=o8
      Another ordinary MODELS data card.          |  ENC2AS:=o9
      Another ordinary MODELS data card.          |ENDUSE
      Another ordinary MODELS data card.          |RECORD
      Another ordinary MODELS data card.          |  DEFAULT.o1 AS AnVOL
      Another ordinary MODELS data card.          |  DEFAULT.o2 AS LONG
      Another ordinary MODELS data card.          |  DEFAULT.o3 AS R0F
      Another ordinary MODELS data card.          |  DEFAULT.o4 AS R1F
      Another ordinary MODELS data card.          |  DEFAULT.o5 AS X0F
      Another ordinary MODELS data card.          |  DEFAULT.o6 AS X1F
      Another ordinary MODELS data card.          |  DEFAULT.o7 AS RDIVX
      Another ordinary MODELS data card.          |  DEFAULT.o8 AS RINSER
      Another ordinary MODELS data card.          |  DEFAULT.o9 AS CLOSE1
      Another ordinary MODELS data card.          |  DEFAULT.o10 AS RPpos
      Another ordinary MODELS data card.          |  DEFAULT.o11 AS RPcero
      Another ordinary MODELS data card.          |  DEFAULT.o12 AS LPpos
      Another ordinary MODELS data card.          |  DEFAULT.o13 AS LPcero
      Another ordinary MODELS data card.          |  DEF.o1 AS CPpos
      Another ordinary MODELS data card.          |  DEF.o2 AS CPcero
      Another ordinary MODELS data card.          |  DEF.o3 AS Xp
      Another ordinary MODELS data card.          |  DEF.o4 AS CR
      Another ordinary MODELS data card.          |  DEF.o5 AS SIMET
      Another ordinary MODELS data card.          |  DEF.o6 AS ENC1
      Another ordinary MODELS data card.          |  DEF.o7 AS ENC2
      Another ordinary MODELS data card.          |  DEF.o8 AS ENC1AS
      Another ordinary MODELS data card.          |  DEF.o9 AS ENC2AS
Termination of data for Laurent Dube`s MODELS.    |ENDMODELS
Comment card.   NUMDCD = 153.                     |C        1         2         3         4         5         6         7         8
Comment card.   NUMDCD = 154.                     |C 345678901234567890123456789012345678901234567890123456789012345678901234567890
Optional blank card follows last of MODELS data.  |BLANK MODELS
Comment card.   NUMDCD = 156.                     |C < n1 >< n2 ><ref1><ref2>< R  >< L  >< C  >
Comment card.   NUMDCD = 157.                     |C < n1 >< n2 ><ref1><ref2>< R  >< A  >< B  ><Leng><><>0
1st of coupled R-L.   1.68360E+00  3.03344E-02    |51IFUENASB1A              1.68369.5298183634
2nd coil. 2.204E+00 3.971E-02 0.000E+00 0.000E+00 |52IFUENBSB1B              2.2039 12.47495746
Zca, Zcc=-1.734E-01-3.125E-03 2.030E+00 3.658E-02 |53IFUENCSB1C
Series R-L-C.   1.000E+09  0.000E+00  0.000E+00   |  SB1A                      1.E9                                               0
Series R-L-C.   1.000E+09  0.000E+00  0.000E+00   |  SB1B                      1.E9                                               0
Series R-L-C.   1.000E+09  0.000E+00  0.000E+00   |  SB1C                      1.E9                                               0
Series R-L-C.   2.446E+01  3.893E+00  0.000E+00   |  RSNSHA                  24.4621223.1                                         0
Series R-L-C.   2.446E+01  3.893E+00  0.000E+00   |  RSNSHB                  24.4621223.1                                         0
Series R-L-C.   2.446E+01  3.893E+00  0.000E+00   |  RSNSHC                  24.4621223.1                                         0
Series R-L-C.   2.446E+01  3.893E+00  0.000E+00   |  RSNNHA                  24.4621223.1                                         0
Series R-L-C.   2.446E+01  3.893E+00  0.000E+00   |  RSNNHB                  24.4621223.1                                         0
Series R-L-C.   2.446E+01  3.893E+00  0.000E+00   |  RSNNHC                  24.4621223.1                                         0
Series R-L-C.   1.000E+09  0.000E+00  0.000E+00   |  SE2A                      1.E9                                               0
Series R-L-C.   1.000E+09  0.000E+00  0.000E+00   |  SE2B                      1.E9                                               0
Series R-L-C.   1.000E+09  0.000E+00  0.000E+00   |  SE2C                      1.E9                                               0
Series R-L-C.   2.500E+02  0.000E+00  3.000E-10   |  X0001B                    250.       .0003                                   0
Series R-L-C.   2.500E+02  0.000E+00  3.000E-10   |  X0002B                    250.       .0003                                   0
Series R-L-C.   1.000E-06  0.000E+00  0.000E+00   |  X0001ALN1A               1.E-6                                               0
Series R-L-C.   1.000E-06  0.000E+00  0.000E+00   |  SB1A  X0002A             1.E-6                                               0
Series R-L-C.   1.000E-06  0.000E+00  0.000E+00   |  X0001BLN1B               1.E-6                                               0
Series R-L-C.   1.000E-06  0.000E+00  0.000E+00   |  SB1B  X0002B             1.E-6                                               0
Series R-L-C.   1.000E-06  0.000E+00  0.000E+00   |  X0001CLN1C               1.E-6                                               0
Series R-L-C.   1.000E-06  0.000E+00  0.000E+00   |  SB1C  X0002C             1.E-6                                               0
Series R-L-C.   4.000E+02  0.000E+00  0.000E+00   |  XX0005X0002A              400.                                               0
Series R-L-C.   4.000E+02  0.000E+00  0.000E+00   |  XX0003X0002B              400.                                               0
Series R-L-C.   4.000E+02  0.000E+00  0.000E+00   |  XX0004X0002C              400.                                               0
Series R-L-C.   2.500E+02  0.000E+00  3.000E-10   |  X0001A                    250.       .0003                                   0
Series R-L-C.   1.000E+06  0.000E+00  0.000E+00   |  X0001AX0002A              1.E6                                               0
Series R-L-C.   1.000E+06  0.000E+00  0.000E+00   |  X0001BX0002B              1.E6                                               0
Series R-L-C.   1.000E+06  0.000E+00  0.000E+00   |  X0001CX0002C              1.E6                                               0
Series R-L-C.   2.500E+02  0.000E+00  3.000E-10   |  X0002C                    250.       .0003                                   0
Series R-L-C.   2.500E+02  0.000E+00  3.000E-10   |  X0002A                    250.       .0003                                   0
Series R-L-C.   2.500E+02  0.000E+00  3.000E-10   |  X0001C                    250.       .0003                                   0
Series R-L-C.   1.250E+02  0.000E+00  6.000E-10   |  X0001AX0002A              125.       .0006                                   0
Series R-L-C.   1.250E+02  0.000E+00  6.000E-10   |  X0001BX0002B              125.       .0006                                   0
Series R-L-C.   1.250E+02  0.000E+00  6.000E-10   |  X0001CX0002C              125.       .0006                                   0
 3.270E-01 1.361E+00 7.280E-03 7.714E+02 1.044E-03|-1LN1A  VFF2A             .327011.3611.00728185.92 0 0                         0
 3.048E-02 4.222E-01 1.077E-02 3.532E+02 7.073E-04|-2LN1B  VFF2B             .03048.42219.01077185.92 0 0                         0
3rd or later transposed distributed phase.        |-3LN1C  VFF2C                                                                  0
Blank card ending branches.  IBR, NTOT = 39  31   |BLANK BRANCH
Comment card.   NUMDCD = 198.                     |C < n 1>< n 2>< Tclose ><Top/Tde ><   Ie   ><Vf/CLOP ><  type  >
Switch.  -1.00E+00  1.00E+01  0.00E+00  0.00E+00  |  LN1A  COMPA        -1.       10.                                             0
Switch.  -1.00E+00  1.00E+01  0.00E+00  0.00E+00  |  LN1B  COMPB        -1.       10.                                             0
Switch.  -1.00E+00  1.00E+01  0.00E+00  0.00E+00  |  LN1C  COMPC        -1.       10.                                             0
Switch.  -1.00E+00  1.00E+01  0.00E+00  0.00E+00  |  VFF2A RSNNHA       -1.       10.                                             0
Switch.  -1.00E+00  1.00E+01  0.00E+00  0.00E+00  |  VFF2B RSNNHB       -1.       10.                                             0
Switch.  -1.00E+00  1.00E+01  0.00E+00  0.00E+00  |  VFF2C RSNNHC       -1.       10.                                             0
Switch.   2.00E+00 -1.00E+00  0.00E+00  0.00E+00  |  VFF2A SE2A          2.       -1.                                             0
Switch.   2.00E+00 -1.00E+00  0.00E+00  0.00E+00  |  VFF2B SE2B          2.       -1.                                             0
Switch.   2.00E+00 -1.00E+00  0.00E+00  0.00E+00  |  VFF2C SE2C          2.       -1.                                             0
Switch.   4.37E-02  1.00E+03  0.00E+00  0.00E+00  |  X0001BXX0003.043654245      1.E3                                             0
Switch.   4.37E-02  1.00E+03  0.00E+00  0.00E+00  |  X0001CXX0004.043654245      1.E3                                             0
Switch.   5.12E-02  1.00E+03  0.00E+00  0.00E+00  |  XX0005X0002A.051154245      1.E3                                             0
Switch.   5.12E-02  1.00E+03  0.00E+00  0.00E+00  |  XX0003X0002B.051154245      1.E3                                             0
Switch.   5.12E-02  1.00E+03  0.00E+00  0.00E+00  |  XX0004X0002C.051154245      1.E3                                             0
Switch.   4.37E-02  1.00E+03  0.00E+00  0.00E+00  |  X0001AXX0005.043654245      1.E3                                             0
Permanently-closed switch used for metering.      |  VFUENAIFUENA                                        MEASURING                1
Permanently-closed switch used for metering.      |  VFUENBIFUENB                                        MEASURING                1
Permanently-closed switch used for metering.      |  VFUENCIFUENC                                        MEASURING                1
Permanently-closed switch used for metering.      |  COMPA RSNSHA                                        MEASURING                1
Permanently-closed switch used for metering.      |  COMPB RSNSHB                                        MEASURING                1
Permanently-closed switch used for metering.      |  COMPC RSNSHC                                        MEASURING                1
Blank card ending switches.   KSWTCH = 21.        |BLANK SWITCH
Comment card.   NUMDCD = 221.                     |C < n 1><>< Ampl.  >< Freq.  ><Phase/T0><   A1   ><   T1   >< TSTART >< TSTOP  >
Source.   4.29E+05  5.00E+01  0.00E+00 -1.00E+00  |14VFUENA  428660.705       50.                                     -1.      100.
Source.   4.29E+05  5.00E+01 -1.20E+02 -1.00E+00  |14VFUENB  428660.705       50.     -120.                           -1.      100.
Source.   4.29E+05  5.00E+01 -2.40E+02 -1.00E+00  |14VFUENC  428660.705       50.     -240.                           -1.      100.
Blank card ends electric sources.  KCONST = 3     |BLANK SOURCE
Pi-equivalent branches of distributed circuits are added to the table of List Size 3 between indices  40   and  45.

Sinusoidal steady-state phasor solution, branch by branch.   All flows are away from a bus,  and the real part,  magnitude,  or  "P"
is printed above the imaginary part,  the angle,  or  "Q".   The first solution frequency  =  5.00000000E+01  Hertz.
  Bus K                        Phasor  node  voltage              Phasor  branch  current               Power flow       Power loss
             Bus M         Rectangular            Polar          Rectangular            Polar            P  and  Q        P  and  Q

 IFUENA                    428660.705       428660.705      .42925334899614  .44591909066735      92002.021602148  .21911596444414
                                  0.0              0.0      .12077002027488       15.7138966      -25884.68101695        1.2402842

            SB1A      428661.26556941  428661.26560626      -.4292533489961  .44591909066735      -92001.80248618
                      -5.621082315974       -0.0007513      -.1207700202749     -164.2861034      25885.921301141

 IFUENB                  -214330.3525       428660.705       -.110036768927  .44591909066424      92002.021601706  .21911596443935
                      -371231.0601341     -120.0000000      -.4321293150238     -104.2861034      -25884.68101606        1.2402842

            SB1B      -214335.5007848  428661.26560626      .11003676892702  .44591909066424      -92001.80248574
                      -371228.7350603     -120.0007513      .43212931502379       75.7138966      25885.921300253

 IFUENC                  -214330.3525       428660.705      -.3192165800706  .44591909066798      92002.021602404  .21911596444257
                      371231.06013415      120.0000000      .31135929475475      135.7138966      -25884.68101654        1.2402842

            SB1C      -214325.7647846  428661.26560626      .31921658007062  .44591909066798      -92001.80248644
                      371234.35614265      119.9992487      -.3113592947548      -44.2861034      25885.921300733

 SB1A                 428661.26556941  428661.26560626      .42866126557E-3  .42866126561E-3      91.875240315582  91.875240315582
                      -5.621082315974       -0.0007513      -.5621082316E-8       -0.0007513      -.571747239E-19        0.0000000

            TERRA                 0.0              0.0      -.4286612656E-3  .42866126561E-3                  0.0
                                  0.0              0.0       .5621082316E-8      179.9992487                  0.0

 SB1B                 -214335.5007848  428661.26560626      -.2143355008E-3  .42866126561E-3      91.875240315582  91.875240315582
                      -371228.7350603     -120.0007513      -.3712287351E-3     -120.0007513      -.335842465E-14        0.0000000

            TERRA                 0.0              0.0      .21433550078E-3  .42866126561E-3                  0.0
                                  0.0              0.0      .37122873506E-3       59.9992487                  0.0

 SB1C                 -214325.7647846  428661.26560626      -.2143257648E-3  .42866126561E-3      91.875240315582  91.875240315582
                      371234.35614265      119.9992487      .37123435614E-3      119.9992487      .2855354841E-14        0.0000000

            TERRA                 0.0              0.0      .21432576478E-3  .42866126561E-3                  0.0
                                  0.0              0.0      -.3712343561E-3      -60.0007513                  0.0

 RSNSHA               -66.96991879243  443.18102462536      .35694366725747  .36226998201491      1.6051908121388  1.6051908121388
                      438.09182891823       98.6913672      .06189311976198        9.8371301      80.259540606939       80.2595406

            TERRA                 0.0              0.0      -.3569436672575  .36226998201491                  0.0
                                  0.0              0.0       -.061893119762     -170.1628699                  0.0

 RSNSHB               412.88361242979  443.18102462536      -.1248708195954  .36226998201491      1.6051908121388  1.6051908121388
                      -161.0482634955      -21.3086328      -.3400688434459     -110.1628699      80.259540606939       80.2595406

            TERRA                 0.0              0.0      .12487081959539  .36226998201491                  0.0
                                  0.0              0.0      .34006884344594       69.8371301                  0.0

 RSNSHC               -345.9136936374  443.18102462536      -.2320728476621  .36226998201491      1.6051908121388  1.6051908121388
                      -277.0435654227     -141.3086328      .27817572368396      129.8371301      80.259540606939       80.2595406

            TERRA                 0.0              0.0      .23207284766208  .36226998201491                  0.0
                                  0.0              0.0       -.278175723684      -50.1628699                  0.0

 RSNNHA               -65.05878693091  426.49189408414      .34341536556997  .34862776656554      1.4865718802781  1.4865718802781
                       421.5005219007       98.7743850      .06006002256846        9.9201478      74.328594013903       74.3285940

            TERRA                 0.0              0.0        -.34341536557  .34862776656554                  0.0
                                  0.0              0.0      -.0600600225685     -170.0798522                  0.0

 RSNNHB               397.55955313986  426.49189408414      -.1196941774888  .34862776656554      1.4865718802781  1.4865718802781
                      -154.4076987288      -21.2256150      -.3274364419177     -110.0798522      74.328594013904       74.3285940

            TERRA                 0.0              0.0      .11969417748883  .34862776656554                  0.0
                                  0.0              0.0      .32743644191774       69.9201478                  0.0

 RSNNHC                -332.500766209  426.49189408415      -.2237211880811  .34862776656554      1.4865718802781  1.4865718802781
                      -267.0928231719     -141.2256150      .26737641934928      129.9201478      74.328594013904       74.3285940

            TERRA                 0.0              0.0      .22372118808113  .34862776656554                  0.0
                                  0.0              0.0      -.2673764193493      -50.0798522                  0.0

 X0001B               412.88361228497  443.18102464001      .15179358149E-4  .41768827525E-4       .2180793691E-6   .2180793691E-6
                      -161.0482639071      -21.3086328      .38913006039E-4       68.6900172      -.0092555758877       -0.0092556

            TERRA                 0.0              0.0      -.1517935815E-4  .41768827525E-4                  0.0
                                  0.0              0.0      -.3891300604E-4     -111.3099828                  0.0

 X0002B               -214335.5007847  428661.26560584      .03498700802006  .04040037247596      .20402376202442  .20402376202442
                      -371228.7350599     -120.0007513       -.020201469402      -30.0021013      -8659.037395842    -8659.0373958

            TERRA                 0.0              0.0      -.0349870080201  .04040037247596                  0.0
                                  0.0              0.0      .02020146940201      149.9978987                  0.0

 X0001A               -66.96991836357  443.18102464001      .42885505990853   .4363220814954      3.2458334555882  .95188479401E-7
                      438.09182899861       98.6913672      .08037596899158       10.6152212      96.630334826197        0.0000000

            LN1A      -66.96991879243  443.18102462536      -.4288550599085   .4363220814954        -3.2458333604
                      438.09182891823       98.6913672      -.0803759689916     -169.3847788       -96.6303348262

 SB1A                 428661.26556941  428661.26560626      .42881583794951  .44549794842569      91908.030466694   .9923420663E-7
                      -5.621082315974       -0.0007513      .12077002597977       15.7291368      -25885.92129423        0.0000000

            X0002A    428661.26556898  428661.26560584      -.4288158379495  .44549794842569      -91908.03046659
                      -5.621082436744       -0.0007513      -.1207700259798     -164.2708632       25885.92129423

 X0001B               412.88361228497  443.18102464001      -.1448198645448  .43632207399973       3.245840894081  .95188476131E-7
                      -161.0482639071      -21.3086328       -.411587365079     -109.3847743      96.630332914429        0.0000000

            LN1B      412.88361242979  443.18102462536      .14481986454484  .43632207399973      -3.245840798893
                      -161.0482634955      -21.3086328      .41158736507896       70.6152257      -96.63033291443

 SB1B                 -214335.5007848  428661.26560626      -.1098087523133  .44547221235379      91902.546415019  .99222752681E-7
                      -371228.7350603     -120.0007513      -.4317262209952     -104.2704768      -25885.04577956        0.0000000

            X0002B    -214335.5007847  428661.26560584      .10980875231326  .44547221235379      -91902.54641492
                      -371228.7350599     -120.0007513      .43172622099519       75.7295232      25885.045779562

 X0001C               -345.9136939214  443.18102464001      -.2840351953637  .43632208547844      3.2458427674999  .95188481139E-7
                      -277.0435650915     -141.3086328      .33121136766567      130.6152267      96.630335396508        0.0000000

            LN1C      -345.9136936374  443.18102462536      .28403519536369  .43632208547844      -3.245842672311
                      -277.0435654227     -141.3086328      -.3312113676657      -49.3847733      -96.63033539651

 SB1C                 -214325.7647846  428661.26560626      -.3189779818058  .44545925489021      91899.393636669  .99216968863E-7
                      371234.35614265      119.9992487      .31094532459974      135.7305848      -25885.99559916              0.0

            X0002C    -214325.7647843  428661.26560584       .3189779818058  .44545925489021      -91899.39363657
                      371234.35614234      119.9992487      -.3109453245997      -44.2694152      25885.995599159

 XX0005               428661.26556898  428661.26560584                  0.0              0.0                  0.0              0.0
                      -5.621082436744       -0.0007513                  0.0              0.0                  0.0              0.0

            X0002A    428661.26556898  428661.26560584                  0.0              0.0                  0.0
                      -5.621082436744       -0.0007513                  0.0              0.0                  0.0

 XX0003               -214335.5007847  428661.26560584                  0.0              0.0                  0.0              0.0
                      -371228.7350599     -120.0007513                  0.0              0.0                  0.0              0.0

            X0002B    -214335.5007847  428661.26560584                  0.0              0.0                  0.0
                      -371228.7350599     -120.0007513                  0.0              0.0                  0.0

 XX0004               -214325.7647843  428661.26560584                  0.0              0.0                  0.0              0.0
                      371234.35614234      119.9992487                  0.0              0.0                  0.0              0.0

            X0002C    -214325.7647843  428661.26560584                  0.0              0.0                  0.0
                      371234.35614234      119.9992487                  0.0              0.0                  0.0

 X0001A               -66.96991836357  443.18102464001      -.4128933084E-4  .41768827525E-4       .2180793691E-6   .2180793691E-6
                      438.09182899861       98.6913672      -.6310793249E-5     -171.3099828      -.0092555758877       -0.0092556

            TERRA                 0.0              0.0      .41289330842E-4  .41768827525E-4                  0.0
                                  0.0              0.0      .63107932493E-5        8.6900172                  0.0

 X0001A               -66.96991836357  443.18102464001      -.4287282354873  .42872846509794      14.453140965833   91904.04839262
                      438.09182899861       98.6913672      .44371291144E-3      179.9407017      -93.89631070527        0.0000000

            X0002A    428661.26556898  428661.26560584      .42872823548734  .42872846509794      91889.595251654
                      -5.621082436744       -0.0007513      -.4437129114E-3       -0.0592983      93.896310705271

 X0001B               412.88361228497  443.18102464001      .21474838439696  .42872846509794      14.453140965833   91904.04839262
                      -161.0482639071      -21.3086328        .371067686796       59.9407017      -93.89631070527        0.0000000

            X0002B    -214335.5007847  428661.26560584       -.214748384397  .42872846509794      91889.595251654
                      -371228.7350599     -120.0007513       -.371067686796     -120.0592983      93.896310705271

 X0001C               -345.9136939214  443.18102464001      .21397985109038  .42872846509794      14.453140965833   91904.04839262
                      -277.0435650915     -141.3086328      -.3715113997074      -60.0592983      -93.89631070527        0.0000000

            X0002C    -214325.7647843  428661.26560584      -.2139798510904  .42872846509794      91889.595251654
                      371234.35614234      119.9992487      .37151139970743      119.9407017      93.896310705274

 X0002C               -214325.7647843  428661.26560584      -.0349884897059  .04040037247596      .20402376202439  .20402376202439
                      371234.35614234      119.9992487      -.0201989030468     -150.0021013      -8659.037395842    -8659.0373958

            TERRA                 0.0              0.0      .03498848970595  .04040037247596                  0.0
                                  0.0              0.0      .02019890304677       29.9978987                  0.0

 X0002A               428661.26556898  428661.26560584      .14816858883E-5  .04040037247596      .20402376202453  .20402376202453
                      -5.621082436744       -0.0007513      .04040037244879       89.9978987      -8659.037395842    -8659.0373958

            TERRA                 0.0              0.0      -.1481685888E-5  .04040037247596                  0.0
                                  0.0              0.0      -.0404003724488      -90.0021013                  0.0

 X0001C               -345.9136939214  443.18102464001      .26109972693E-4  .41768827525E-4       .2180793691E-6   .2180793691E-6
                      -277.0435650915     -141.3086328      -.3260221279E-4      -51.3099828      -.0092555758877       -0.0092556

            TERRA                 0.0              0.0      -.2610997269E-4  .41768827525E-4                  0.0
                                  0.0              0.0       .3260221279E-4      128.6900172                  0.0

 X0001A               -66.96991836357  443.18102464001      -.8554203346E-4  .08081341175776      -17.69897339377  .40817546999557
                      438.09182899861       98.6913672      -.0808133664841      -90.0606483      -2.724769911009   -17323.5049863

            X0002A    428661.26556898  428661.26560584      .85542033461E-4  .08081341175776      18.107148863769
                      -5.621082436744       -0.0007513      .08081336648408       89.9393517       -17320.7802164

 X0001B               412.88361228497  443.18102464001      -.0699436573238  .08081341175776      -17.69897339377   .4081754699947
                      -161.0482639071      -21.3086328      .04048076481611      149.9393517      -2.724769911009   -17323.5049863

            X0002B    -214335.5007847  428661.26560584      .06994365732382  .08081341175776      18.107148863768
                      -371228.7350599     -120.0007513      -.0404807648161      -30.0606483       -17320.7802164

 X0001C               -345.9136939214  443.18102464001      .07002919935728  .08081341175776      -17.69897339377  .40817546999488
                      -277.0435650915     -141.3086328      .04033260166797       29.9393517      -2.724769911009   -17323.5049863

            X0002C    -214325.7647843  428661.26560584      -.0700291993573  .08081341175776      18.107148863768
                      371234.35614234      119.9992487       -.040332601668     -150.0606483       -17320.7802164

 LN1A                 -66.96991879243  443.18102462536       .0719114016974  .07424866820452      1.6406382183611  .15406633808292
                      438.09182891823       98.6913672       .0184828308454       14.4142917      16.370795585229      -57.9577984

            VFF2A     -65.05878693091  426.49189408414        -.34341536557  .34862776656554      -1.486571880278
                       421.5005219007       98.7743850      -.0600600225685     -170.0798522       -74.3285940139

 LN1B                 412.88361242979  443.18102462536      -.0199490998027  .07424866820452       1.640638218361  .15406633808293
                      -161.0482634955      -21.3086328      -.0715185161144     -105.5857083      16.370795585229      -57.9577984

            VFF2B     397.55955313986  426.49189408414      .11969417748883  .34862776656554      -1.486571880278
                      -154.4076987288      -21.2256150      .32743644191774       69.9201478       -74.3285940139

 LN1C                 -345.9136936374  443.18102462536      -.0519623018947  .07424866820452       1.640638218361  .15406633808293
                      -277.0435654227     -141.3086328        .053035685269      134.4142917      16.370795585229      -57.9577984

            VFF2C      -332.500766209  426.49189408415      .22372118808113  .34862776656554      -1.486571880278
                      -267.0928231719     -141.2256150      -.2673764193493      -50.0798522       -74.3285940139
     Total network loss  P-loss  by summing injections =   2.760088019295E+05

Output for steady-state phasor switch currents.
      Node-K    Node-M            I-real            I-imag            I-magn          Degrees        Power            Reactive
      LN1A      COMPA         3.56943662E-01    6.18930864E-02    3.62269971E-01       9.8371    1.60518366E+00    8.02595384E+01
      LN1B      COMPB        -1.24870849E-01   -3.40068852E-01    3.62270001E-01    -110.1629    1.60518549E+00    8.02595448E+01
      LN1C      COMPC        -2.32072917E-01    2.78175732E-01    3.62270033E-01     129.8371    1.60520176E+00    8.02595517E+01
      VFF2A     RSNNHA        3.43415366E-01    6.00600226E-02    3.48627767E-01       9.9201    1.48657188E+00    7.43285940E+01
      VFF2B     RSNNHB       -1.19694177E-01   -3.27436442E-01    3.48627767E-01    -110.0799    1.48657188E+00    7.43285940E+01
      VFF2C     RSNNHC       -2.23721188E-01    2.67376419E-01    3.48627767E-01     129.9201    1.48657188E+00    7.43285940E+01
      VFF2A     SE2A              Open              Open              Open             Open          Open              Open
      VFF2B     SE2B              Open              Open              Open             Open          Open              Open
      VFF2C     SE2C              Open              Open              Open             Open          Open              Open
      X0001B    XX0003            Open              Open              Open             Open          Open              Open
      X0001C    XX0004            Open              Open              Open             Open          Open              Open
      XX0005    X0002A            Open              Open              Open             Open          Open              Open
      XX0003    X0002B            Open              Open              Open             Open          Open              Open
      XX0004    X0002C            Open              Open              Open             Open          Open              Open
      X0001A    XX0005            Open              Open              Open             Open          Open              Open
      VFUENA    IFUENA        4.29253349E-01    1.20770020E-01    4.45919091E-01      15.7139    9.20020216E+04   -2.58846810E+04
      VFUENB    IFUENB       -1.10036769E-01   -4.32129315E-01    4.45919091E-01    -104.2861    9.20020216E+04   -2.58846810E+04
      VFUENC    IFUENC       -3.19216580E-01    3.11359295E-01    4.45919091E-01     135.7139    9.20020216E+04   -2.58846810E+04
      COMPA     RSNSHA        3.56943662E-01    6.18930864E-02    3.62269971E-01       9.8371    1.60518366E+00    8.02595384E+01
      COMPB     RSNSHB       -1.24870849E-01   -3.40068852E-01    3.62270001E-01    -110.1629    1.60518549E+00    8.02595448E+01
      COMPC     RSNSHC       -2.32072917E-01    2.78175732E-01    3.62270033E-01     129.8371    1.60520176E+00    8.02595517E+01

Solution at nodes with known voltage.   Nodes that are shorted together by switches are shown as a group of names, with the printed
result applying to the composite group.   The entry "MVA" is  SQRT( P**2 + Q**2 )  in units of power,  while  "P.F."  is the
associated power factor.
              Node                Source  node  voltage             Injected  source  current              Injected  source  power
              name         Rectangular            Polar          Rectangular            Polar            P  and  Q    MVA and P.F.

               VFUENA
              IFUENA       428660.705       428660.705      .42925334899577  .44591909066548      92002.021602069  95573.995888811
                                  0.0              0.0      .12077002026927       15.7138966      -25884.68101574        0.9626261

               VFUENB
              IFUENB     -214330.3525       428660.705       -.110036768928   .4459190906668      92002.021602255  95573.995889095
                      -371231.0601341     -120.0000000      -.4321293150262     -104.2861034      -25884.68101613        0.9626261

               VFUENC
              IFUENC     -214330.3525       428660.705      -.3192165800718   .4459190906681      92002.021602336  95573.995889372
                      371231.06013415      120.0000000      .31135929475371      135.7138966      -25884.68101687        0.9626261

  +++  Node  "COMPC "  has no connected linear branches.  Add (to ground) the conductance  G = 1.00000000E-18  mhos.
  +++  Node  "COMPB "  has no connected linear branches.  Add (to ground) the conductance  G = 1.00000000E-18  mhos.
  +++  Node  "COMPA "  has no connected linear branches.  Add (to ground) the conductance  G = 1.00000000E-18  mhos.
Card of names for time-step loop output.          |  LN1A  LN1B  LN1C  COMPA COMPB COMPC SB1A  SB1B  SB1C  SE2A  SE2B  SE2C  VFF2A
Card of names for time-step loop output.          |  VFF2B VFF2C IFUENAIFUENBIFUENC
Card of names for time-step loop output.          |-5VFF2A VFF2B VFF2B VFF2C VFF2C VFF2A LN1A  LN1B  LN1B  LN1C  LN1C  LN1A
Card of names for time-step loop output.          |-5SB1A  SB1B  SB1B  SB1C  SB1C  SB1A
Blank card ending requests for output variables.  |BLANK OUTPUT

Column headings for the  55   EMTP output variables follow.  These are divided among the 5 possible classes as follows ....
  First  27     output variables are electric-network voltage differences (upper voltage minus lower voltage);
  Next   6     output variables are branch currents (flowing from the upper node to the lower node);
  Next   22     output variables belong to MODELS (with "MODELS" an internally-added upper name of pair).
   Step      Time      LN1A       LN1B       LN1C       COMPA      COMPB      COMPC      SB1A       SB1B       SB1C       SE2A
 

                       SE2B       SE2C       VFF2A      VFF2B      VFF2C      IFUENA     IFUENB     IFUENC     VFF2A      VFF2B
                                                                                                               VFF2B      VFF2C

                       VFF2C      LN1A       LN1B       LN1C       SB1A       SB1B       SB1C       VFUENA     VFUENB     VFUENC
                       VFF2A      LN1B       LN1C       LN1A       SB1B       SB1C       SB1A       IFUENA     IFUENB     IFUENC

                       COMPA      COMPB      COMPC      MODELS     MODELS     MODELS     MODELS     MODELS     MODELS     MODELS
                       RSNSHA     RSNSHB     RSNSHC     ANVOL      LONG       R0F        R1F        X0F        X1F        RDIVX

                       MODELS     MODELS     MODELS     MODELS     MODELS     MODELS     MODELS     MODELS     MODELS     MODELS
                       RINSER     CLOSE1     RPPOS      RPCERO     LPPOS      LPCERO     CPPOS      CPCERO     XP         CR

                       MODELS     MODELS     MODELS     MODELS     MODELS
                       SIMET      ENC1       ENC2       ENC1AS     ENC2AS
 ***      Phasor I(0) =  3.5694366E-01                     Switch  "LN1A  "  to  "COMPA "  closed in the steady-state.
 ***      Phasor I(0) = -1.2487085E-01                     Switch  "LN1B  "  to  "COMPB "  closed in the steady-state.
 ***      Phasor I(0) = -2.3207292E-01                     Switch  "LN1C  "  to  "COMPC "  closed in the steady-state.
 ***      Phasor I(0) =  3.4341537E-01                     Switch  "VFF2A "  to  "RSNNHA"  closed in the steady-state.
 ***      Phasor I(0) = -1.1969418E-01                     Switch  "VFF2B "  to  "RSNNHB"  closed in the steady-state.
 ***      Phasor I(0) = -2.2372119E-01                     Switch  "VFF2C "  to  "RSNNHC"  closed in the steady-state.
 ***      Phasor I(0) =  4.2925335E-01                     Switch  "VFUENA"  to  "IFUENA"  closed in the steady-state.
 ***      Phasor I(0) = -1.1003677E-01                     Switch  "VFUENB"  to  "IFUENB"  closed in the steady-state.
 ***      Phasor I(0) = -3.1921658E-01                     Switch  "VFUENC"  to  "IFUENC"  closed in the steady-state.
 ***      Phasor I(0) =  3.5694366E-01                     Switch  "COMPA "  to  "RSNSHA"  closed in the steady-state.
 ***      Phasor I(0) = -1.2487085E-01                     Switch  "COMPB "  to  "RSNSHB"  closed in the steady-state.
 ***      Phasor I(0) = -2.3207292E-01                     Switch  "COMPC "  to  "RSNSHC"  closed in the steady-state.
      0       0.0  -66.969919 412.883612 -345.91369 -66.969919 412.883612 -345.91369 428661.266  -214335.5 -214325.76        0.0
                          0.0        0.0 -65.058787 397.559553 -332.50077 428660.705 -214330.35 -214330.35 -462.61834 730.060319
                   -267.44198 -479.85353 758.797306 -278.94377 642996.766 -9.7360002 -642987.03 .429253349 -.11003677 -.31921658
                   .356943662 -.12487085 -.23207292        0.0   185.9231   1.683559   2.203854   9.529818   12.47496    .176662
                         400.    .043654    .030475    .327008    .422193   1.361128    .010767    .007282   2446.216   48.92433
                          1.0        1.0        1.0        0.0        0.0
    500     .5E-3  -134.67823 432.993915 -298.31569 -134.67823 432.993915 -298.31569 423384.654 -153623.73 -269760.93        0.0
                          0.0        0.0 -130.19501 416.819617  -286.6246  423383.18 -153618.26 -269764.92 -547.01463 703.444221
                   -156.42959 -567.67214 731.309601 -163.63746  577008.38 116137.201 -693145.58 .405038397 -.04106836 -.36397003
                   .342866895 -.07013499 -.27273194        0.0   185.9231   1.683559   2.203854   9.529818   12.47496    .176662
                         400.    .043654    .030475    .327008    .422193   1.361128    .010767    .007282   2446.216   48.92433
                          1.0        1.0        1.0        0.0        0.0
   1000     .1E-2  -199.07023 442.442415 -243.37219 -199.07023 442.442415 -243.37219 407682.825 -89129.185 -318553.64        0.0
                          0.0        0.0 -192.12504  425.81602 -233.69098 407680.557 -89123.572 -318556.98 -617.94106    659.507
                   -41.565941 -641.51264 685.814602 -44.301959  496812.01 229424.454 -726236.46 .370887939 .028892316 -.39978025
                   .320347576 -.01367218 -.30667542        0.0   185.9231   1.683559   2.203854   9.529818   12.47496    .176662
                         400.    .043654    .030475    .327008    .422193   1.361128    .010767    .007282   2446.216   48.92433
                          1.0        1.0        1.0        0.0        0.0
   1500     .0015  -258.56017 440.996403 -182.43624 -258.56017 440.996403 -182.43624 381942.476  -22439.98  -359502.5        0.0
                          0.0        0.0 -249.32407 424.327305 -175.00323 381939.485 -22434.368 -359505.12 -673.65138 599.330538
                   74.3208374 -699.55657  623.43264 76.1239301 404382.456 337062.516 -741444.97 .327605413 .098141355 -.42574677
                   .289940294 .043127267 -.33306756        0.0   185.9231   1.683559   2.203854   9.529818   12.47496    .176662
                         400.    .043654    .030475    .327008    .422193   1.361128    .010767    .007282   2446.216   48.92433
                          1.0        1.0        1.0        0.0        0.0
   2000      .002  -311.68339 428.691499 -117.00811 -311.68339 428.691499 -117.00811 346797.567 44801.7064 -391599.27        0.0
                          0.0        0.0 -300.38553 412.391046 -112.00551 346793.795 44807.2448 -391601.04 -712.77658 524.396557
                   188.380022 -740.37489 545.699607 194.675283  301995.86 436400.979 -738396.84 .276266464 .164968708 -.44123517
                   .252393661 .098864842 -.35125846        0.0   185.9231   1.683559   2.203854   9.529818   12.47496    .176662
                         400.    .043654    .030475    .327008    .422193   1.361128    .010767    .007282   2446.216   48.92433
                          1.0        1.0        1.0        0.0        0.0
   2500     .0025  -357.13275  405.83121 -48.698458 -357.13275  405.83121 -48.698458 303113.281 110940.261 -414053.54        0.0
                          0.0        0.0 -344.05152 390.300864 -46.249345 303108.891 110945.554 -414054.45 -734.35238 436.550209
                   297.802175 -762.96396 454.529667 308.434294  192173.02 524993.803 -717166.82 .218103053 .227744896 -.44584795
                   .208632228 .152167978 -.36080023        0.0   185.9231   1.683559   2.203854   9.529818   12.47496    .176662
                         400.    .043654    .030475    .327008    .422193   1.361128    .010767    .007282   2446.216   48.92433
                          1.0        1.0        1.0        0.0        0.0
   3000      .003   -393.7888  372.97826 20.8105372  -393.7888  372.97826 20.8105372 251965.317 174347.109 -426312.43        0.0
                          0.0        0.0 -379.24113 358.597821 20.6433056 251960.441 174352.016 -426312.46 -737.83895 337.954515
                   399.884432 -766.76706 352.167723 414.599334 77618.2079 600659.536 -678277.74 .154590011 .284902851 -.43949286
                   .159733642 .201724222 -.36145789        0.0   185.9231   1.683559   2.203854   9.529818   12.47496    .176662
                         400.    .043654    .030475    .327008    .422193   1.361128    .010767    .007282   2446.216   48.92433
                          1.0        1.0        1.0        0.0        0.0
   3500     .0035  -420.74687 330.940549 89.8063256 -420.74687 330.940549 89.8063256 194613.132 233460.953 -428074.09        0.0
                          0.0        0.0 -405.09535 318.066313 87.0290337 194607.888 233465.353 -428073.24 -723.16166 231.037279
                    492.12438 -751.68742 241.134223   510.5532 -38847.821 661535.039 -622687.22  .08725389 .335053831 -.42230772
                   .106901843 .246313396 -.35321525        0.0   185.9231   1.683559   2.203854   9.529818   12.47496    .176662
                         400.    .043654    .030475    .327008    .422193   1.361128    .010767    .007282   2446.216   48.92433
                          1.0        1.0        1.0        0.0        0.0
   4000      .004  -437.34506 280.754119 156.590936 -437.34506 280.754119 156.590936 132468.971 286826.191 -419295.16        0.0
                          0.0        0.0 -420.97459 269.702862 151.271727 132463.443 286829.997 -419293.44 -690.67745 118.431135
                   572.246316 -718.09918 124.163183 593.935992 -154357.22 706121.353 -551764.13 .017778875 .376949892 -.39472877
                   .051437792 .284837461 -.33627528        0.0   185.9231   1.683559   2.203854   9.529818   12.47496    .176662
                         400.    .043654    .030475    .327008    .422193   1.361128    .010767    .007282   2446.216   48.92433
                          1.0        1.0        1.0        0.0        0.0
   4500     .0045  -443.17506 223.654967 219.520091 -443.17506 223.654967 219.520091 67062.9692 333128.823 -400191.79        0.0
                          0.0        0.0 -426.48892 214.698867 211.790051 67057.3081 333131.936 -400189.24 -641.18779 2.90881679
                   638.278969 -666.83003 4.13487603  662.69515 -266065.85 733320.616 -467254.76 -.05214033 .409567397 -.35742707
                   -.00529279 .316347924 -.31105513        0.0   185.9231   1.683559   2.203854   9.529818   12.47496    .176662
                         400.    .043654    .030475    .327008    .422193   1.361128    .010767    .007282   2446.216   48.92433
                          1.0        1.0        1.0        0.0        0.0
   5000      .005  -438.09166 161.048181 277.043482 -438.09166 161.048181 277.043482 5.62547897 371228.733 -371234.36        0.0
                          0.0        0.0 -421.50099 154.407954  267.09304 -.45661E-7  371231.06 -371231.06 -575.90895 -112.68509
                   688.594034 -599.13984  -115.9953 715.135144 -371223.11 742463.091 -371239.98 -.12076698 .432095649 -.31132867
                   -.06189311 .340068843 -.27817571        0.0   185.9231   1.683559   2.203854   9.529818   12.47496    .176662
                         400.    .043654    .030475    .327008    .422193   1.361128    .010767    .007282   2446.216   48.92433
                          1.0        1.0        1.0        0.0        0.0
   5500     .0055  -422.22206 94.4763983 327.745662 -422.22206 94.4763983 327.745662 -67051.846 400187.754 -333135.91        0.0
                          0.0        0.0  -406.1332 90.3144125 315.818788 -67057.308 400189.244 -333131.94 -496.44761 -225.50438
                   721.951988 -516.69846 -233.26926 749.967722  -467239.6 733323.662 -266084.06 -.18642729 .443987938 -.25756065
                   -.11696943 .355416132 -.23844674        0.0   185.9231   1.683559   2.203854   9.529818   12.47496    .176662
                         400.    .043654    .030475    .327008    .422193   1.361128    .010767    .007282   2446.216   48.92433
                          1.0        1.0        1.0        0.0        0.0
   6000      .006  -395.95813 25.5793866 370.378741 -395.95813 25.5793866 370.378741 -132458.26 419292.817 -286834.55        0.0
                          0.0        0.0 -380.76629 23.9976524 356.768637 -132463.44  419293.44   -286830. -404.76394 -332.77098
                   737.534926 -421.53751 -344.79935  766.33687 -551751.08 706127.369 -154376.29 -.24749069 .444944555 -.19745387
                    -.1691655 .362011906 -.19284638        0.0   185.9231   1.683559   2.203854   9.529818   12.47496    .176662
                         400.    .043654    .030475    .327008    .422193   1.361128    .010767    .007282   2446.216   48.92433
                          1.0        1.0        1.0        0.0        0.0
   6500     .0065   -359.9393 -43.950028  403.88933  -359.9393 -43.950028  403.88933 -194603.13 428073.505 -233470.37        0.0
                          0.0        0.0 -346.02004 -42.911796 388.931836 -194607.89  428073.24 -233465.35 -303.10824 -431.84363
                   734.951877 -315.98927 -447.83936 763.828632 -622676.64 661543.878  -38867.24 -.30246738  .43494882 -.13248144
                    -.2171962 .359693737 -.14249755        0.0   185.9231   1.683559   2.203854   9.529818   12.47496    .176662
                         400.    .043654    .030475    .327008    .422193   1.361128    .010767    .007282   2446.216   48.92433
                          1.0        1.0        1.0        0.0        0.0
   7000      .007  -315.05981 -112.39613 427.455937 -315.05981 -112.39613 427.455937 -251956.22   426313.6 -174357.38        0.0
                          0.0        0.0 -302.75991 -108.76149 411.521404 -251960.44 426312.457 -174352.02 -193.99842  -520.2829
                   714.281316 -202.66368 -539.85207 742.515746 -678269.82 600670.981 77598.8388 -.34999093 .414240514 -.06424958
                   -.25987882 .348518713 -.08863992        0.0   185.9231   1.683559   2.203854   9.529818   12.47496    .176662
                         400.    .043654    .030475    .327008    .422193   1.361128    .010767    .007282   2446.216   48.92433
                          1.0        1.0        1.0        0.0        0.0
   7500     .0075  -262.42295 -178.07443 440.497381 -262.42295 -178.07443 440.497381 -303105.29 414056.431 -110951.14        0.0
                          0.0        0.0  -252.0423 -171.93438 423.976675 -303108.89 414054.446 -110945.55 -80.107918 -595.91105
                   676.018972 -84.348524 -618.57181 702.920334 -717161.72 525007.571 192154.153 -.38889999 .383333955 .005566038
                   -.29616236 .328761992 -.03259966        0.0   185.9231   1.683559   2.203854   9.529818   12.47496    .176662
                         400.    .043654    .030475    .327008    .422193   1.361128    .010767    .007282   2446.216   48.92433
                          1.0        1.0        1.0        0.0        0.0
   8000      .008   -203.3245 -239.36789 442.692393  -203.3245 -239.36789 442.692393 -346790.94 391603.835 -44812.896        0.0
                          0.0        0.0 -195.11877 -230.87355 425.992325  -346793.8  391601.04 -44807.245 35.7547761 -656.86588
                   621.111099 36.0433962 -682.06029 646.016891 -738394.77 436416.731 301978.043 -.41822835 .342986085  .07524226
                   -.32515336 .300910086 .024243272        0.0   185.9231   1.683559   2.203854   9.529818   12.47496    .176662
                         400.    .043654    .030475    .327008    .422193   1.361128    .010767    .007282   2446.216   48.92433
                          1.0        1.0        1.0        0.0        0.0
   8500     .0085   -139.2213  -294.7664 433.987702  -139.2213  -294.7664 433.987702 -381937.44 359508.652 22428.7883        0.0
                          0.0        0.0 -133.38841 -284.12906 417.517468 -381939.48 359505.117 22434.3679 150.740649 -701.64653
                   550.905877 155.545102  -728.7541 573.209002 -741446.09 337079.864 404366.229 -.43726365 .294195322 .143068331
                     -.346138 .265648729 .080489272        0.0   185.9231   1.683559   2.203854   9.529818   12.47496    .176662
                         400.    .043654    .030475    .327008    .422193   1.361128    .010767    .007282   2446.216   48.92433
                          1.0        1.0        1.0        0.0        0.0
   9000      .009  -71.687547 -342.90807 414.595616 -71.687547 -342.90807 414.595616 -407679.35 318561.163 89118.1911        0.0
                          0.0        0.0 -68.375995 -330.38715 398.763143 -407680.56 318556.985  89123.572 262.011154 -729.15029
                   467.139138 271.220522 -757.50369 486.283164 -726240.52 229442.972 496797.545   -.445529 .238158961 .207370041
                   -.35859964  .22384629 .134753395        0.0   185.9231   1.683559   2.203854   9.529818   12.47496    .176662
                         400.    .043654    .030475    .327008    .422193   1.361128    .010767    .007282   2446.216   48.92433
                          1.0        1.0        1.0        0.0        0.0
   9500     .0095  -2.3875311 -382.60672 384.994247 -2.3875311 -382.60672 384.994247 -423382.85 269769.641 153613.209        0.0
                          0.0        0.0 -1.6793674 -368.51029 370.189653 -423383.18 269764.922 153618.258 366.830918 -738.69994
                   371.869021 380.219185 -767.60096 387.381778 -693152.49 116156.432 576996.058 -.44282493 .176258825 .266566101
                   -.36223132 .176531944 .185699369        0.0   185.9231   1.683559   2.203854   9.529818   12.47496    .176662
                         400.    .043654    .030475    .327008    .422193   1.361128    .010767    .007282   2446.216   48.92433
                          1.0        1.0        1.0        0.0        0.0
  10000       .01  66.9741281 -412.88573 345.911602 66.9741281 -412.88573 345.911602 -428661.26 214335.497 214325.761        0.0
                          0.0        0.0  65.059183 -397.55978 332.500593 -428660.71 214330.353 214330.352 462.618959 -730.06037
                    267.44141 479.859858 -758.79733 278.937474 -642996.75 9.73515592 642987.019 -.42921405 .110017118  .31919693
                   -.35694367 .124870836 .232072875        0.0   185.9231   1.683559   2.203854   9.529818   12.47496    .176662
                         400.    .043654    .030475    .327008    .422193   1.361128    .010767    .007282   2446.216   48.92433
                          1.0        1.0        1.0        0.0        0.0
  10500     .0105  134.678459 -432.99404 298.315585 134.678459 -432.99404 298.315585  -423384.6 153623.701 269760.902        0.0
                          0.0        0.0 130.195285 -416.81978 286.624492 -423383.18 153618.258 269764.922 547.015061 -703.44427
                   156.429207 567.672502 -731.30963 163.637127  -577008.3  -116137.2 693145.504 -.40504004 .041069198 .363970841
                   -.34286689 .070134967 .272731898        0.0   185.9231   1.683559   2.203854   9.529818   12.47496    .176662
                         400.    .043654    .030475    .327008    .422193   1.361128    .010767    .007282   2446.216   48.92433
                          1.0        1.0        1.0        0.0        0.0
  11000      .011  199.069524 -442.44208 243.372557 199.069524 -442.44208 243.372557 -407682.82 89129.1851 318553.639        0.0
                          0.0        0.0 192.124822 -425.81592 233.691102 -407680.56  89123.572 318556.985 617.940746 -659.50703
                   41.5662797 641.511606 -685.81464 44.3030329 -496812.01 -229424.45 726236.464 -.37088838 -.02889209 .399780477
                   -.32034757  .01367218 .306675418        0.0   185.9231   1.683559   2.203854   9.529818   12.47496    .176662
                         400.    .043654    .030475    .327008    .422193   1.361128    .010767    .007282   2446.216   48.92433
                          1.0        1.0        1.0        0.0        0.0
  11500     .0115  258.559215  -440.9959 182.436687 258.559215  -440.9959 182.436687 -381942.55 22440.0164 359502.532        0.0
                          0.0        0.0 249.325819 -424.32819 175.002369 -381939.48 22434.3679 359505.117 673.654008 -599.33056
                    -74.32345 699.555117 -623.43259 -76.122529 -404382.56 -337062.52 741445.081 -.32760594 -.09814111 .425747048
                   -.28994024  -.0431273 .333067563        0.0   185.9231   1.683559   2.203854   9.529818   12.47496    .176662
                         400.    .043654    .030475    .327008    .422193   1.361128    .010767    .007282   2446.216   48.92433
                          1.0        1.0        1.0        0.0        0.0
  12000      .012  311.683194  -428.6914 117.008205 311.683194  -428.6914 117.008205 -346797.56 -44801.712 391599.268        0.0
                          0.0        0.0   300.3856 -412.39108 112.005483  -346793.8 -44807.245  391601.04 712.776683 -524.39657
                   -188.38012 740.374592  -545.6996 -194.67499 -301995.84 -436400.98 738396.824 -.27625754 -.16497317 .441230705
                   -.25239362 -.09886485 .351258471        0.0   185.9231   1.683559   2.203854   9.529818   12.47496    .176662
                         400.    .043654    .030475    .327008    .422193   1.361128    .010767    .007282   2446.216   48.92433
                          1.0        1.0        1.0        0.0        0.0
  12500     .0125  357.132499 -405.83108  48.698581 357.132499 -405.83108  48.698581 -303113.26 -110940.27  414053.53        0.0
                          0.0        0.0 344.048138 -390.29916 46.2510256 -303108.89 -110945.55 414054.446 734.347301 -436.55019
                   -297.79711 762.963579 -454.52966 -308.43392 -192172.98  -524993.8 717166.788 -.21810494 -.22774395 .445848887
                   -.20863226 -.15216798 .360800237        0.0   185.9231   1.683559   2.203854   9.529818   12.47496    .176662
                         400.    .043654    .030475    .327008    .422193   1.361128    .010767    .007282   2446.216   48.92433
                          1.0        1.0        1.0        0.0        0.0
  13000      .013   393.78921 -372.97844 -20.810766  393.78921 -372.97844 -20.810766 -251965.31 -174347.11 426312.424        0.0
                          0.0        0.0 379.241597 -358.59805 -20.643547 -251960.44 -174352.02 426312.457 737.839647  -337.9545
                   -399.88514 766.767654 -352.16768 -414.59998 -77618.199 -600659.54 678277.735 -.15457999 -.28490786 .439487848
                   -.15973363 -.20172427 .361457895        0.0   185.9231   1.683559   2.203854   9.529818   12.47496    .176662
                         400.    .043654    .030475    .327008    .422193   1.361128    .010767    .007282   2446.216   48.92433
                          1.0        1.0        1.0        0.0        0.0
  13500     .0135  420.747132 -330.94066 -89.806473 420.747132 -330.94066 -89.806473 -194613.15 -233460.95 428074.094        0.0
                          0.0        0.0 405.099117 -318.06817 -87.030945 -194607.89 -233465.35  428073.24  723.16729 -231.03723
                   -492.13006 751.687792 -241.13419  -510.5536 38847.7965 -661535.04 622687.242 -.08725323 -.33505416 .422307396
                   -.10690188 -.24631338 .353215264        0.0   185.9231   1.683559   2.203854   9.529818   12.47496    .176662
                         400.    .043654    .030475    .327008    .422193   1.361128    .010767    .007282   2446.216   48.92433
                          1.0        1.0        1.0        0.0        0.0
  14000      .014  437.344641 -280.75389 -156.59075 437.344641 -280.75389 -156.59075 -132468.96  -286826.2 419295.157        0.0
                          0.0        0.0  420.97494 -269.70302 -151.27192 -132463.44   -286830.  419293.44 690.677956 -118.43109
                   -572.24686 718.098535 -124.16315 -593.93539 154357.234 -706121.35 551764.119 -.01777612 -.37695126 .394727388
                   -.05143783 -.28483748 .336275306        0.0   185.9231   1.683559   2.203854   9.529818   12.47496    .176662
                         400.    .043654    .030475    .327008    .422193   1.361128    .010767    .007282   2446.216   48.92433
                          1.0        1.0        1.0        0.0        0.0
  14500     .0145  443.173665 -223.65423 -219.51944 443.173665 -223.65423 -219.51944 -67062.951 -333128.83 400191.783        0.0
                          0.0        0.0 426.488803 -214.69879 -211.79001 -67057.308 -333131.94 400189.244 641.187592  -2.908775
                   -638.27882 666.827894 -4.1347932  -662.6931 266065.882 -733320.62 467254.734 .052138803 -.40956663 .357427828
                   .005292846 -.31634793 .311055112        0.0   185.9231   1.683559   2.203854   9.529818   12.47496    .176662
                         400.    .043654    .030475    .327008    .422193   1.361128    .010767    .007282   2446.216   48.92433
                          1.0        1.0        1.0        0.0        0.0
  % % % % % %   Suspended simulation;  plot data space exhausted;  SPY SPACE is required.   LIMBUF =  840000.
  % % % % % %   Suspended simulation;  plot data space exhausted;  SPY SPACE is required.   LIMBUF =  840000.
  +++  Time-sharing disabled.   Send  user-keyed interrupt to silence alarm.
   Current values.  INDBUF  INDBEG  LIMBUF  MFLUSH  NUMDCD  KCARD1  KCARD2
                    839994      50  840000    1000     230       1     231
Plot timespan now in memory (in sec) = 0.00000000E+00   1.49990000E-02
   ++++  Begin plot-data copy from memory to disk.   MFLUSH, INDBUF, N4, Tbeg,  Tend = 1001  839994       1  -1.00000E+00
1.00000E+19
  15000      .015  438.092001 -161.04833 -277.04367 438.092001 -161.04833 -277.04367 -5.6248319 -371228.73 371234.358        0.0
                          0.0        0.0 421.499529 -154.40717 -267.09236 -.61533E-6 -371231.06  371231.06 575.906699  112.68519
                   -688.59189  599.14033 115.995344 -715.13567 371223.108 -742463.09 371239.983 .120769255 -.43209678 .311327529
                    .06189315 -.34006886 .278175741        0.0   185.9231   1.683559   2.203854   9.529818   12.47496    .176662
                         400.    .043654    .030475    .327008    .422193   1.361128    .010767    .007282   2446.216   48.92433
                          1.0        1.0        1.0        0.0        0.0
  15500     .0155  422.221856 -94.476274 -327.74558 422.221856 -94.476274 -327.74558 67051.8465 -400187.75 333135.908        0.0
                          0.0        0.0 406.132627 -90.314101 -315.81853 67057.3081 -400189.24 333131.936 496.446728 225.504426
                   -721.95115  516.69813 233.269309 -749.96744   467239.6 -733323.66 266084.061 .186426985 -.44398779 .257560803
                   .116969388 -.35541614 .238446706        0.0   185.9231   1.683559   2.203854   9.529818   12.47496    .176662
                         400.    .043654    .030475    .327008    .422193   1.361128    .010767    .007282   2446.216   48.92433
                          1.0        1.0        1.0        0.0        0.0
  16000      .016  395.955091 -25.577843 -370.37725 395.955091 -25.577843 -370.37725 132458.275 -419292.82 286834.547        0.0
                          0.0        0.0 380.766217 -23.997598 -356.76862 132463.443 -419293.44 286829.997 404.763816  332.77102
                   -737.53484 421.532934 344.799405 -766.33234 551751.098 -706127.37 154376.272 .247495766 -.44494709 .197451325
                   .169165508  -.3620119 .192846371        0.0   185.9231   1.683559   2.203854   9.529818   12.47496    .176662
                         400.    .043654    .030475    .327008    .422193   1.361128    .010767    .007282   2446.216   48.92433
                          1.0        1.0        1.0        0.0        0.0
  16500     .0165  359.939435 43.9499763 -403.88941 359.939435 43.9499763 -403.88941 194603.132  -428073.5 233470.373        0.0
                          0.0        0.0 346.026069  42.908813 -388.93488 194607.888 -428073.24 233465.353 303.117256 431.843695
                   -734.96095 315.989458 447.839387 -763.82885 622676.637 -661543.88 38867.2414 .302467361 -.43494881 .132481452
                   .217196212 -.35969372 .142497505        0.0   185.9231   1.683559   2.203854   9.529818   12.47496    .176662
                         400.    .043654    .030475    .327008    .422193   1.361128    .010767    .007282   2446.216   48.92433
                          1.0        1.0        1.0        0.0        0.0
  17000      .017   315.05599 112.398058 -427.45405  315.05599 112.398058 -427.45405 251956.222  -426313.6 174357.379        0.0
                          0.0        0.0 302.760413 108.761249 -411.52166 251960.441 -426312.46 174352.016 193.999164 520.282911
                   -714.28208 202.657931 539.852106 -742.51004 678269.824 -600670.98 -77598.843 .349993002 -.41424155 .064248544
                   .259878798 -.34851871 .088639894        0.0   185.9231   1.683559   2.203854   9.529818   12.47496    .176662
                         400.    .043654    .030475    .327008    .422193   1.361128    .010767    .007282   2446.216   48.92433
                          1.0        1.0        1.0        0.0        0.0
  17500     .0175  262.422138 178.074848 -440.49699 262.422138 178.074848 -440.49699 303105.317 -414056.44 110951.127        0.0
                          0.0        0.0 252.042218 171.934423 -423.97664 303108.891 -414054.45 110945.554 80.1077945 595.911064
                   -676.01886 84.3472896 618.571834 -702.91912  717161.76 -525007.57 -192154.19 .388898514 -.38333321  -.0055653
                   .296162333   -.328762 .032599636        0.0   185.9231   1.683559   2.203854   9.529818   12.47496    .176662
                         400.    .043654    .030475    .327008    .422193   1.361128    .010767    .007282   2446.216   48.92433
                          1.0        1.0        1.0        0.0        0.0
  18000      .018    203.3244 239.367941 -442.69234   203.3244 239.367941 -442.69234 346790.944 -391603.84 44812.8939        0.0
                          0.0        0.0 195.117153 230.874377 -425.99153 346793.795 -391601.04 44807.2448 -35.757223 656.865907
                   -621.10868  -36.04354 682.060281 -646.01674 738394.781 -436416.73 -301978.05 .418229913 -.34298687 -.07524305
                   .325153357 -.30091007 -.02424331        0.0   185.9231   1.683559   2.203854   9.529818   12.47496    .176662
                         400.    .043654    .030475    .327008    .422193   1.361128    .010767    .007282   2446.216   48.92433
                          1.0        1.0        1.0        0.0        0.0
  18500     .0185  139.217538 294.768314 -433.98585 139.217538 294.768314 -433.98585 381937.425 -359508.64  -22428.78        0.0
                          0.0        0.0 133.388832 284.128837 -417.51767 381939.485 -359505.12 -22434.368 -150.74001 701.646507
                    -550.9065 -155.55078 728.754167 -573.20339 741446.069 -337079.86  -404366.2 .437263071 -.29419503 -.14306804
                   .346138035 -.26564873  -.0804893        0.0   185.9231   1.683559   2.203854   9.529818   12.47496    .176662
                         400.    .043654    .030475    .327008    .422193   1.361128    .010767    .007282   2446.216   48.92433
                          1.0        1.0        1.0        0.0        0.0
  19000      .019  71.6848516 342.909403 -414.59425 71.6848516 342.909403 -414.59425 407679.355 -318561.16 -89118.192        0.0
                          0.0        0.0 68.3759524 330.387155 -398.76311 407680.557 -318556.98 -89123.572  -262.0112 729.150263
                   -467.13906 -271.22455 757.503657 -486.27911 726240.519 -229442.97 -496797.55  .44552959 -.23815925 -.20737034
                   .358599631 -.22384624 -.13475337        0.0   185.9231   1.683559   2.203854   9.529818   12.47496    .176662
                         400.    .043654    .030475    .327008    .422193   1.361128    .010767    .007282   2446.216   48.92433
                          1.0        1.0        1.0        0.0        0.0
  19500     .0195  2.38726743 382.606828  -384.9941 2.38726743 382.606828  -384.9941 423382.853 -269769.64 -153613.21        0.0
                          0.0        0.0 1.68022372 368.509845 -370.19007  423383.18 -269764.92 -153618.26 -366.82962 738.699914
                   -371.87029 -380.21956 767.600923 -387.38136 693152.495 -116156.43 -576996.06 .442824921 -.17625882  -.2665661
                   .362231316 -.17653191 -.18569941        0.0   185.9231   1.683559   2.203854   9.529818   12.47496    .176662
                         400.    .043654    .030475    .327008    .422193   1.361128    .010767    .007282   2446.216   48.92433
                          1.0        1.0        1.0        0.0        0.0
  20000       .02  -66.967503 412.882409 -345.91491 -66.967503 412.882409 -345.91491 428661.268  -214335.5 -214325.77        0.0
                          0.0        0.0 -65.058105 397.559208  -332.5011 428660.705 -214330.35 -214330.35 -462.61731 730.060311
                     -267.443 -479.84991 758.797316  -278.9474  642996.77 -9.7352086 -642987.03 .429216809  -.1100185 -.31919831
                    .35694367 -.12487083 -.23207288        0.0   185.9231   1.683559   2.203854   9.529818   12.47496    .176662
                         400.    .043654    .030475    .327008    .422193   1.361128    .010767    .007282   2446.216   48.92433
                          1.0        1.0        1.0        0.0        0.0
  20500     .0205  -134.67826 432.993917 -298.31566 -134.67826 432.993917 -298.31566 423384.618 -153623.71 -269760.91        0.0
                          0.0        0.0 -130.19521 416.819712 -286.62451  423383.18 -153618.26 -269764.92 -547.01492 703.444217
                    -156.4293 -567.67218 731.309574  -163.6374 577008.327 116137.201 -693145.53 .405038628 -.04106849 -.36397014
                   .342866866 -.07013494 -.27273193        0.0   185.9231   1.683559   2.203854   9.529818   12.47496    .176662
                         400.    .043654    .030475    .327008    .422193   1.361128    .010767    .007282   2446.216   48.92433
                          1.0        1.0        1.0        0.0        0.0
  21000      .021   -199.0699 442.442241 -243.37234  -199.0699 442.442241 -243.37234 407682.828 -89129.187 -318553.64        0.0
                          0.0        0.0 -192.12638 425.816685  -233.6903 407680.557 -89123.572 -318556.98 -617.94307 659.506985
                   -41.563917 -641.51214 685.814582 -44.302439 496812.015 229424.454 -726236.47 .370889058 .028891757 -.39978082
                    .32034758 -.01367217 -.30667544        0.0   185.9231   1.683559   2.203854   9.529818   12.47496    .176662
[...]
                         400.    .043654    .030475    .327008    .422193   1.361128    .010767    .007282   2446.216   48.92433
                          1.0        1.0        1.0        0.0        0.0
 113000      .113  -254375.95 -174796.72 429172.679 -254375.95 -174796.72 429172.679 -254375.95 -174796.72 429172.679        0.0
                          0.0        0.0 -311463.09 -100391.45  411854.54 -251960.44 -174352.02 426312.457 -211071.65 -512245.99
                   723317.633 -79579.229  -603969.4 683548.633  -79579.23  -603969.4 683548.634 -491.15083 302.950851  188.19998
                   -381.44212 305.217568 76.2245546        0.0   185.9231   1.683559   2.203854   9.529818   12.47496    .176662
                         400.    .043654    .030475    .327008    .422193   1.361128    .010767    .007282   2446.216   48.92433
                          1.0        1.0        1.0        0.0        0.0
 113500     .1135  -214931.85 -212338.05 427269.895 -214931.85 -212338.05 427269.895 -214931.85 -212338.05 427269.896        0.0
                          0.0        0.0 -254521.97 -156086.99 410608.957 -194607.89 -233465.35  428073.24 -98434.987 -566695.94
                    665130.93 -2593.8025 -639607.94 642201.744 -2593.8038 -639607.94 642201.746 -439.73608 183.249631 256.486447
                    -409.3201 279.202428 130.117675        0.0   185.9231   1.683559   2.203854   9.529818   12.47496    .176662
                         400.    .043654    .030475    .327008    .422193   1.361128    .010767    .007282   2446.216   48.92433
                          1.0        1.0        1.0        0.0        0.0
 114000      .114  -131528.68 -278814.49 410343.166 -131528.68 -278814.49 410343.166 -131528.68 -278814.49 410343.167        0.0
                          0.0        0.0 -91391.597 -309356.78  400748.38 -132463.44   -286830.  419293.44 217965.186 -710105.16
                   492139.977 147285.811 -689157.65 541871.843  147285.81 -689157.66 541871.845 -379.15819  86.922588 292.235599
                   -429.55277 245.845839 183.706989        0.0   185.9231   1.683559   2.203854   9.529818   12.47496    .176662
                         400.    .043654    .030475    .327008    .422193   1.361128    .010767    .007282   2446.216   48.92433
                          1.0        1.0        1.0        0.0        0.0
 114500     .1145  -48752.471 -345747.99 394500.456 -48752.471 -345747.99 394500.456 -48752.472 -345747.98 394500.457        0.0
                          0.0        0.0 4983.63776 -379899.94 374916.299 -67057.308 -333131.94 400189.244 384883.574 -754816.24
                   369932.661 296995.514 -740248.44 443252.927 296995.513 -740248.44 443252.929 -585.35328 249.236523  336.11676
                   -438.80285 203.560293 235.242576        0.0   185.9231   1.683559   2.203854   9.529818   12.47496    .176662
                         400.    .043654    .030475    .327008    .422193   1.361128    .010767    .007282   2446.216   48.92433
                          1.0        1.0        1.0        0.0        0.0
 115000      .115  24528.5258 -383925.35 359396.828 24528.5258 -383925.35 359396.828 24528.5244 -383925.35 359396.829        0.0
                          0.0        0.0  101000.37 -446948.79 345948.423 .127058E-4 -371231.06  371231.06 547949.163 -792897.22
                   244948.053  408453.88 -743322.18 334868.302 408453.878 -743322.18 334868.305 -672.42755 277.004078 395.423475
                    -440.6655 157.309519 283.355993        0.0   185.9231   1.683559   2.203854   9.529818   12.47496    .176662
                         400.    .043654    .030475    .327008    .422193   1.361128    .010767    .007282   2446.216   48.92433
                          1.0        1.0        1.0        0.0        0.0
 115500     .1155  57215.2169 -389686.31 332471.096 57215.2169 -389686.31 332471.096 57215.2154 -389686.31 332471.097        0.0
                          0.0        0.0 25612.3358 -339991.89 314379.559 67057.3081 -400189.24 333131.936  365604.23 -654371.45
                   288767.223  446901.53 -722157.41  275255.88 446901.528 -722157.41 275255.882 -759.01182  295.12041 463.891406
                   -433.88101  106.98232 326.898669        0.0   185.9231   1.683559   2.203854   9.529818   12.47496    .176662
                         400.    .043654    .030475    .327008    .422193   1.361128    .010767    .007282   2446.216   48.92433
                          1.0        1.0        1.0        0.0        0.0
 116000      .116  100037.698 -390472.85 290435.154 100037.698 -390472.85 290435.154 100037.696 -390472.85 290435.155        0.0
                          0.0        0.0 65614.9724 -343646.55 278031.578 132463.443 -419293.44 286829.997 409261.523 -621678.13
                   212416.606 490510.549   -680908. 190397.456 490510.547 -680908.01 190397.458 -642.25664 109.117104 533.139537
                   -420.67144 55.8171122 364.854326        0.0   185.9231   1.683559   2.203854   9.529818   12.47496    .176662
                         400.    .043654    .030475    .327008    .422193   1.361128    .010767    .007282   2446.216   48.92433
                          1.0        1.0        1.0        0.0        0.0
 116500     .1165  179214.765 -414910.81 235696.041 179214.765 -414910.81 235696.041 179214.764 -414910.81 235696.042        0.0
                          0.0        0.0  86408.943 -312587.15 226178.207 194607.888 -428073.24 233465.353 398996.093 -538765.36
                   139769.264  594125.57 -650606.85 56481.2766 594125.569 -650606.85 56481.2787 -481.88702 -85.252665 567.139682
                   -399.81929 3.18705203 396.632267        0.0   185.9231   1.683559   2.203854   9.529818   12.47496    .176662
                         400.    .043654    .030475    .327008    .422193   1.361128    .010767    .007282   2446.216   48.92433
                          1.0        1.0        1.0        0.0        0.0
 117000      .117  269295.476 -438711.73 169416.249 269295.476 -438711.73 169416.249 269295.476 -438711.73  169416.25        0.0
                          0.0        0.0  274574.38 -447671.39 173097.012 251960.441 -426312.46 174352.016 722245.773  -620768.4
                   -101477.37 708007.202 -608127.97 -99879.227 708007.202 -608127.98 -99879.226 -343.38204 -244.21883 587.600874
                   -371.17288 -50.041925 421.214807        0.0   185.9231   1.683559   2.203854   9.529818   12.47496    .176662
                         400.    .043654    .030475    .327008    .422193   1.361128    .010767    .007282   2446.216   48.92433
                          1.0        1.0        1.0        0.0        0.0
 117500     .1175   330846.56 -443125.63 112279.068  330846.56 -443125.63 112279.068 330846.559 -443125.63  112279.07        0.0
                          0.0        0.0    338301. -440798.13  102497.13 303108.891 -414054.45 110945.554  779099.13 -543295.26
                   -235803.87 773972.188  -555404.7 -218567.49 773972.188  -555404.7 -218567.49 -310.27199 -262.01894 572.290927
                   -334.60304 -103.60872 438.211785        0.0   185.9231   1.683559   2.203854   9.529818   12.47496    .176662
                         400.    .043654    .030475    .327008    .422193   1.361128    .010767    .007282   2446.216   48.92433
                          1.0        1.0        1.0        0.0        0.0
 118000      .118  344427.238 -380264.58 35837.3453 344427.238 -380264.58 35837.3453 344427.237 -380264.58 35837.3464        0.0
                          0.0        0.0 412391.388 -442352.75 29961.3659 346793.795 -391601.04 44807.2447 854744.142 -472314.12
                   -382430.02 724691.821 -416101.93 -308589.89  724691.82 -416101.93 -308589.89 -458.26622 -133.52649 591.792709
                   -290.17239 -156.30587 446.478275        0.0   185.9231   1.683559   2.203854   9.529818   12.47496    .176662
                         400.    .043654    .030475    .327008    .422193   1.361128    .010767    .007282   2446.216   48.92433
                          1.0        1.0        1.0        0.0        0.0
 118500     .1185  357278.967 -334503.35 -22775.621 357278.967 -334503.35 -22775.621 357278.966 -334503.35 -22775.619        0.0
                          0.0        0.0 351704.704 -314244.76  -37459.94 381939.485 -359505.12 -22434.368 665949.468 -276784.82
                   -389164.64 691782.313 -311727.73 -380054.59 691782.312 -311727.73 -380054.58 -514.26124 -80.660147  594.92139
                   -241.73457 -204.57916 446.313713        0.0   185.9231   1.683559   2.203854   9.529818   12.47496    .176662
                         400.    .043654    .030475    .327008    .422193   1.361128    .010767    .007282   2446.216   48.92433
                          1.0        1.0        1.0        0.0        0.0
 119000      .119  374363.559 -292926.98 -81436.581 374363.559 -292926.98 -81436.581 374363.558 -292926.98  -81436.58        0.0
                          0.0        0.0 351432.685 -268153.35 -83279.332 407680.557 -318556.98 -89123.572 619586.037 -184874.02
                   -434712.02 667290.536  -211490.4 -455800.14 667290.536  -211490.4 -455800.14 -490.98581 -122.36329   613.3491
                   -190.33924 -247.04755 437.386747        0.0   185.9231   1.683559   2.203854   9.529818   12.47496    .176662
                         400.    .043654    .030475    .327008    .422193   1.361128    .010767    .007282   2446.216   48.92433
                          1.0        1.0        1.0        0.0        0.0
 119500     .1195  416070.035 -270718.84  -145351.2 416070.035 -270718.84  -145351.2 416070.034 -270718.84 -145351.19        0.0
                          0.0        0.0 346741.469 -208671.59 -138069.88  423383.18 -269764.92 -153618.26 555413.059 -70601.713
                   -484811.35 686788.874 -125367.64 -561421.23 686788.875 -125367.65 -561421.23 -175.04657 -410.52766 585.574232
                   -139.48019 -281.05004 420.530257        0.0   185.9231   1.683559   2.203854   9.529818   12.47496    .176662
                         400.    .043654    .030475    .327008    .422193   1.361128    .010767    .007282   2446.216   48.92433
                          1.0        1.0        1.0        0.0        0.0
  % % % % % %   Suspended simulation;  plot data space exhausted;  SPY SPACE is required.   LIMBUF =  840000.
  % % % % % %   Suspended simulation;  plot data space exhausted;  SPY SPACE is required.   LIMBUF =  840000.
  +++  Time-sharing disabled.   Send  user-keyed interrupt to silence alarm.
   Current values.  INDBUF  INDBEG  LIMBUF  MFLUSH  NUMDCD  KCARD1  KCARD2
                    839994      50  840000    1007     230       1     231
Plot timespan now in memory (in sec) = 1.04985997E-01   1.19985000E-01
   ++++  Begin plot-data copy from memory to disk.   MFLUSH, INDBUF, N4, Tbeg,  Tend = 1008  839994       1  -1.00000E+00
1.00000E+19
 120000       .12  431956.234 -219002.56 -212953.68 431956.234 -219002.56 -212953.68 431956.234 -219002.56 -212953.68        0.0
                          0.0        0.0  379203.67 -187565.86 -191637.81 428660.705 -214330.35 -214330.35 566769.527 4071.95524
                   -570841.48 650958.791 -6048.8791 -644909.91 650958.792 -6048.8813 -644909.91 12.0755309 -561.35927  549.28374
                   -86.181779 -309.59636 395.778084        0.0   185.9231   1.683559   2.203854   9.529818   12.47496    .176662
                         400.    .043654    .030475    .327008    .422193   1.361128    .010767    .007282   2446.216   48.92433
                          1.0        1.0        1.0        0.0        0.0

Extrema of output variables follow.   Order and column positioning are the same as for the preceding time-step loop output.
Variable maxima :  492790.206 475961.536  459730.18 492790.206 475961.536  459730.18 492790.206 479442.487 459730.181        0.0
                          0.0        0.0 587624.316 573507.016 443223.894 428660.705 428660.703 428660.703 .1051262E7 909624.189
                   908780.691 868005.342 799783.385 811143.207 868005.341 968433.689 811143.209 637.592603 890.780382  758.35453
                   243.928821 341.759777 502.243627        0.0   185.9231   1.683559   2.203854   9.529818   12.47496    .176662
                         400.    .043654    .030475    .327008    .422193   1.361128    .010767    .007282   2446.216   48.92433
                          1.0        1.0        1.0        0.0        0.0
Times of maxima :     .060718    .065634    .053621    .060718    .065634    .053621    .060718    .046518    .053621        0.0
                          0.0        0.0    .060652    .065322     .05292        0.0    .006667    .113333    .058023    .065316
                      .071674    .057485    .065404    .052674    .057485    .045123    .052674    .085189    .070837    .059025
                      .105071    .050256     .05812        0.0        0.0        0.0        0.0        0.0        0.0        0.0
                          0.0        0.0        0.0        0.0        0.0        0.0        0.0        0.0        0.0        0.0
                          0.0        0.0        0.0        0.0        0.0
Variable minima :  -473680.94 -490513.46 -443020.27 -473680.94 -490513.46 -443020.27 -473680.94 -490513.46 -508520.75        0.0
                          0.0        0.0 -559599.32 -615323.47 -427719.73 -428660.71  -428660.7  -428660.7 -.110095E7 -899579.37
                   -872339.03 -877832.76 -815953.09 -807512.84 -877832.76 -815953.09 -807512.84 -1157.3936 -894.85956  -561.2283
                   -488.83761  -362.7371 -237.17293        0.0   185.9231   1.683559   2.203854   9.529818   12.47496    .176662
                         400.    .043654    .030475    .327008    .422193   1.361128    .010767    .007282   2446.216   48.92433
                          1.0        1.0        1.0        0.0        0.0
Times of minima :     .109703    .057454     .06354    .109703    .057454     .06354    .109703    .057454    .045122        0.0
                          0.0        0.0    .068521    .076403    .083393        .01    .016667    .103333    .068472    .054324
                       .06121     .06869     .05431    .060722     .06869     .05431    .060722    .055651    .062969    .044013
                      .054883    .061454    .108283        0.0        0.0        0.0        0.0        0.0        0.0        0.0
                          0.0        0.0        0.0        0.0        0.0        0.0        0.0        0.0        0.0        0.0
                          0.0        0.0        0.0        0.0        0.0

Blank card terminating all plot cards.            |BLANK PLOT

Memory storage figures for the preceding, now-completed data case.  -------------------------------  Present   Program
A value of  "-9999"  indicates that no figure is available.         28-Feb-22  19:26:29              figure     limit  (name)
     Size List 1.   Number of electric network nodes.                                                   37      6000  (LBUS)
     Size List 2.   Number of electric network branches.                                                39     10000  (LBRNCH)
     Size List 3.   Number of data values in R, L, C tables.                                            45    192000  (LDATA)
     Size List 4.   Number of electric network sources.                                                  3       900  (LEXCT)
     Size List 5.   Storage for [Y] and triangularized [Y].   No. times =    3     Factors =    66     189    420000  (LYMAT)
     Size List 6.   Number of entries in switch table.                  No. flops = 18                  21      1200  (LSWTCH)
     Size List 7.   Number of distinct ALPHANUMERIC data names plus program SPY variables.              25     15000  (LSIZE7)
     Size List 8.   History points of distributed lines.                                              2464    120000  (LPAST)
     Size List 9.   Number of nonlinear elements.                                                        0      2250  (LNONL)
     Size List 10.  Points of nonlinear characteristics.                                                 0      3800  (LCHAR)
     Size List 11.  Number of Type-59 S.M. outputs.                                                      0       720  (LSMOUT)
     Size List 12.  Total number of EMTP output variables.                                              55      2000  (LSIZ12)
     Size List 13.  Working space for batch/SPY plotting.                                            -9999     72800  (LSIZ13)
     Size List 14.  S.M./U.M. connections to TACS.                                                   -9999       510  (LBSTAC)
     Size List 15.  Character storage in bytes for MODELS.                                            3297     90000  (LCTACS)
     Size List 16.  Total number of Type-59 S.M. masses.                                                 0       800  (LIMASS)
     Size List 17.  Number of Type-59 Synchronous machines.                                              0        90  (LSYN)
     Size List 18.  Branch and switch power/energy outputs.                                              0       254  (MAXPE)
     Size List 19.  Total floating-point TACS table space.                                              23    120000  (LTACST)
     Size List 20.  Non-copied recursive convolution data.                                               0    100000  (LFSEM)
     Size List 21.  Total modal/phase [T] matrix storage.                                                9      3000  (LFD)
     Size List 22.  Total recursive convolution history.                                                 0     15000  (LHIST)
     Size List 23.  Giant vectors for renumbering, phasors;  also extrema accumulation.                  93    192000  (LSIZ23)
     Size List 24.  Peak phases of compensation for data.                                                0       120  (LCOMP)
     Size List 25.  Total table space for all U.M usage.                                             -9999     45000  (LSPCUM)
     Size List 26.  Square of max number of coupled phases.                                              9    260000  (LSIZ26)
     Size List 27.  Maximum number of MODELS top variables.                                             44       600  (LSIZ27)
     Size List 28.  MODELS.  Total work space is divided into INTEGER and REAL.  1st, REAL:           1780    210000  (LRTACS)
                             Second  and last,  statistics for INTEGER work space.                    6838         0  (LITACS)
     Size List 29.  RAM disk used by "TAPSAV" table saving (limit is "LABCOM" size LTLABL).          -9999       600  (LSIZ29)
     Size List 30.  Taku Noda frequency-dependent circuits.                                              0        19  (LSIZ30)
Timing figures characterizing central processor (CP) solution speed.  ----------------------------   CP sec  Wait sec  Real sec
     Data input time (through blank card ending branches) ....                                       0.031     0.000     0.031
     Node renumbering and phasor solution  ....                                                      0.000     0.000     0.000
     After phasor solution, but before time-step loop  ....                                          0.000     0.000     0.000
     Integration of equations (time-step loop)  ....                                                 1.031     0.000     1.031
     Plotting or STATISTICS termination overlays ....                                                0.000     0.000     0.000
                                                                                                    ---------------------------
                                                                                          Totals      1.063     0.000     1.063

