   ---   236   cards of disk file read into card cache cells  1   onward.
 Comment card is ignored.      |C   LBUS  LBRNCH   LDATA   LEXCT   LYMAT  LSWTCH
 Limit CIDEAL cards =   200    |CARDS        200 { Limit of CIDEAL will be 2 mor
 1st card (Lists  1-10).       |    6000   10000  192000     900  420000    120
 Comment card is ignored.      |C LSMOUT  LSIZ12  LSIZ13  LBSTAC  LCTACS  LIMASS
 2nd card (Lists 11-20).       |     720    2000   72800     510   90000     80
 Comment card is ignored.      |C    LFD   LHIST  LSIZ23   NCOMP  LSPCUM  LSIZ26
 3rd card (Lists 21-30).       |    3000   15000  192000     120   45000  26000
 4th card (Lists 31-32).       |     200     300     { Optional card for Lists
 Comment card is ignored.      |C  LWORK  LMARTI
 Supplemental offsets.         |  840000     742
 <===> Done with  "/"-card sorting by data class.    Remember that the source file appears different from interpreted input data.
Alternative Transients Program (ATP),  GNU Linux or DOS.  All rights reserved by Can/Am user group of Portland, Oregon, USA.
 Date (dd-mth-yy) and time of day (hh.mm.ss) = 28-Feb-22  19:03:19   Name of disk plot file is  atp\bdfinalisima\energizacion47.pl4
Consult the 860-page ATP Rule Book of the Can/Am EMTP User Group in Portland,  Oregon, USA.  Source code date is 12 August 2008.
Total size of LABCOM tables = 10913436 INTEGER words.  31 VARDIM  List Sizes follow:  6002  10K  192K  900  420K  1200  15K
  120K  2250  3800  720  2K  72800  510  90K  800  90  254  120K  100K  3K  15K  192K  120  45K  260K  600  210K  1100  60  200
--------------------------------------------------+--------------------------------------------------------------------------------
Descriptive interpretation of input data cards.   |  Input data card images are shown below, all 80 columns, character by character
                                                  0         1         2         3         4         5         6         7         8
                                                  012345678901234567890123456789012345678901234567890123456789012345678901234567890
--------------------------------------------------+--------------------------------------------------------------------------------
Comment card.   NUMDCD = 1.                       |C data:D:\ATP\BDFINALISIMA\ENERGIZACION47.ATP
Marker card preceding new EMTP data case.         |BEGIN NEW DATA CASE
Comment card.   NUMDCD = 3.                       |C --------------------------------------------------------
Comment card.   NUMDCD = 4.                       |C Generated by ATPDRAW  febrero, lunes 28, 2022
Comment card.   NUMDCD = 5.                       |C A Bonneville Power Administration program
Comment card.   NUMDCD = 6.                       |C by H. K. Høidalen at SEfAS/NTNU - NORWAY 1994-2016
Comment card.   NUMDCD = 7.                       |C --------------------------------------------------------
Comment card.   NUMDCD = 8.                       |C  dT  >< Tmax >< Xopt >< Copt ><Epsiln>
Misc. data.     1.000E-06   1.200E-01   5.000E+01 |   1.E-6     .12     50.
Misc. data.    500    1  0  1  1  0  0  0  0  0   |     500       1       0       1       1       0       0       0       0
  ///  Warning.  Nonzero XOPT or COPT differs from the power frequency of  6.00000000E+01  Hz.   Did the user really want this?
No TACS data,  but MODELS data begins (next).     |MODELS
      Another ordinary MODELS data card.          |OUTPUT
      Another ordinary MODELS data card.          |  AnVol
      Another ordinary MODELS data card.          |  LONG
      Another ordinary MODELS data card.          |  R0F
      Another ordinary MODELS data card.          |  R1F
      Another ordinary MODELS data card.          |  X0F
      Another ordinary MODELS data card.          |  X1F
      Another ordinary MODELS data card.          |  RDIVX
      Another ordinary MODELS data card.          |  RINSER
      Another ordinary MODELS data card.          |  CLOSE1
      Another ordinary MODELS data card.          |  RPpos
      Another ordinary MODELS data card.          |  RPcero
      Another ordinary MODELS data card.          |  LPpos
      Another ordinary MODELS data card.          |  LPcero
      Another ordinary MODELS data card.          |  CPpos
      Another ordinary MODELS data card.          |  CPcero
      Another ordinary MODELS data card.          |  Xp
      Another ordinary MODELS data card.          |  CR
      Another ordinary MODELS data card.          |  SIMET
      Another ordinary MODELS data card.          |  ENC1
      Another ordinary MODELS data card.          |  ENC2
      Another ordinary MODELS data card.          |  ENC1AS
      Another ordinary MODELS data card.          |  ENC2AS
      Another ordinary MODELS data card.          |MODEL DEFAULT
      Another ordinary MODELS data card.          |DATA AnVol,LONG,R0F,R1F,X0F,X1F,RDIVX,RINSER,CLOSE1,RPpos,RPcero,LPpos,LPcero
      Another ordinary MODELS data card.          |OUTPUT o1,o2,o3, o4, o5, o6, o7, o8, o9, o10, o11, o12, o13
      Another ordinary MODELS data card.          |VAR o1,o2,o3, o4, o5, o6, o7, o8, o9, o10, o11, o12, o13
      Another ordinary MODELS data card.          |INIT
      Another ordinary MODELS data card.          |  o1:=AnVol
      Another ordinary MODELS data card.          |  o2:=LONG
      Another ordinary MODELS data card.          |  o3:=R0F
      Another ordinary MODELS data card.          |  o4:=R1F
      Another ordinary MODELS data card.          |  o5:=X0F
      Another ordinary MODELS data card.          |  O6:=X1F
      Another ordinary MODELS data card.          |  o7:=RDIVX
      Another ordinary MODELS data card.          |  o8:=RINSER
      Another ordinary MODELS data card.          |  o9:=CLOSE1
      Another ordinary MODELS data card.          |  o10:=RPpos
      Another ordinary MODELS data card.          |  o11:=RPcero
      Another ordinary MODELS data card.          |  o12:=LPpos
      Another ordinary MODELS data card.          |  o13:=LPcero
      Another ordinary MODELS data card.          |
      Another ordinary MODELS data card.          |ENDINIT
      Another ordinary MODELS data card.          |EXEC
      Another ordinary MODELS data card.          |ENDEXEC
      Another ordinary MODELS data card.          |ENDMODEL
      Another ordinary MODELS data card.          |MODEL DEFAULT1
      Another ordinary MODELS data card.          |DATA CPpos,CPcero,Xp,CR,SIMET,ENC1,ENC2,ENC1AS,ENC2AS
      Another ordinary MODELS data card.          |OUTPUT o1, o2, o3, o4, o5, o6, o7, o8, o9
      Another ordinary MODELS data card.          |VAR o1, o2, o3, o4, o5, o6, o7, o8, o9
      Another ordinary MODELS data card.          |INIT
      Another ordinary MODELS data card.          |  o1:=CPpos
      Another ordinary MODELS data card.          |  o2:=CPcero
      Another ordinary MODELS data card.          |  o3:=Xp
      Another ordinary MODELS data card.          |  o4:=CR
      Another ordinary MODELS data card.          |  o5:=SIMET
      Another ordinary MODELS data card.          |  o6:=ENC1
      Another ordinary MODELS data card.          |  o7:=ENC2
      Another ordinary MODELS data card.          |  o8:=ENC1AS
      Another ordinary MODELS data card.          |  o9:=ENC2AS
      Another ordinary MODELS data card.          |
      Another ordinary MODELS data card.          |ENDINIT
      Another ordinary MODELS data card.          |EXEC
      Another ordinary MODELS data card.          |ENDEXEC
      Another ordinary MODELS data card.          |ENDMODEL
      Another ordinary MODELS data card.          |USE DEFAULT AS DEFAULT
      Another ordinary MODELS data card.          |DATA
      Another ordinary MODELS data card.          |  AnVol:=      0.0
      Another ordinary MODELS data card.          |  LONG:= 147.0899
      Another ordinary MODELS data card.          |  R0F:= 3.200332
      Another ordinary MODELS data card.          |  R1F:= 2.460748
      Another ordinary MODELS data card.          |  X0F:= 12.20434
      Another ordinary MODELS data card.          |  X1F:= 9.383966
      Another ordinary MODELS data card.          |  RDIVX:= 0.262229
      Another ordinary MODELS data card.          |  RINSER:=     420.
      Another ordinary MODELS data card.          |  CLOSE1:= 0.059928
      Another ordinary MODELS data card.          |  RPpos:= 0.024499
      Another ordinary MODELS data card.          |  RPcero:= 0.199218
      Another ordinary MODELS data card.          |  LPpos:= 0.363147
      Another ordinary MODELS data card.          |  LPcero:= 0.955974
      Another ordinary MODELS data card.          |OUTPUT
      Another ordinary MODELS data card.          |  AnVol:=o1
      Another ordinary MODELS data card.          |  LONG:=o2
      Another ordinary MODELS data card.          |  R0F:=o3
      Another ordinary MODELS data card.          |  R1F:=o4
      Another ordinary MODELS data card.          |  X0F:=o5
      Another ordinary MODELS data card.          |  X1F:=o6
      Another ordinary MODELS data card.          |  RDIVX:=o7
      Another ordinary MODELS data card.          |  RINSER:=o8
      Another ordinary MODELS data card.          |  CLOSE1:=o9
      Another ordinary MODELS data card.          |  RPpos:=o10
      Another ordinary MODELS data card.          |  RPcero:=o11
      Another ordinary MODELS data card.          |  LPpos:=o12
      Another ordinary MODELS data card.          |  LPcero:=o13
      Another ordinary MODELS data card.          |ENDUSE
      Another ordinary MODELS data card.          |USE DEFAULT1 AS DEF
      Another ordinary MODELS data card.          |DATA
      Another ordinary MODELS data card.          |  CPpos:= 0.013807
      Another ordinary MODELS data card.          |  CPcero:= 0.005716
      Another ordinary MODELS data card.          |  Xp:= 2411.373
      Another ordinary MODELS data card.          |  CR:= 48.22745
      Another ordinary MODELS data card.          |  SIMET:=      0.0
      Another ordinary MODELS data card.          |  ENC1:=      0.0
      Another ordinary MODELS data card.          |  ENC2:=      0.0
      Another ordinary MODELS data card.          |  ENC1AS:=      0.0
      Another ordinary MODELS data card.          |  ENC2AS:=      0.0
      Another ordinary MODELS data card.          |OUTPUT
      Another ordinary MODELS data card.          |  CPpos:=o1
      Another ordinary MODELS data card.          |  CPcero:=o2
      Another ordinary MODELS data card.          |  Xp:=o3
      Another ordinary MODELS data card.          |  CR:=o4
      Another ordinary MODELS data card.          |  SIMET:=o5
      Another ordinary MODELS data card.          |  ENC1:=o6
      Another ordinary MODELS data card.          |  ENC2:=o7
      Another ordinary MODELS data card.          |  ENC1AS:=o8
      Another ordinary MODELS data card.          |  ENC2AS:=o9
      Another ordinary MODELS data card.          |ENDUSE
      Another ordinary MODELS data card.          |RECORD
      Another ordinary MODELS data card.          |  DEFAULT.o1 AS AnVOL
      Another ordinary MODELS data card.          |  DEFAULT.o2 AS LONG
      Another ordinary MODELS data card.          |  DEFAULT.o3 AS R0F
      Another ordinary MODELS data card.          |  DEFAULT.o4 AS R1F
      Another ordinary MODELS data card.          |  DEFAULT.o5 AS X0F
      Another ordinary MODELS data card.          |  DEFAULT.o6 AS X1F
      Another ordinary MODELS data card.          |  DEFAULT.o7 AS RDIVX
      Another ordinary MODELS data card.          |  DEFAULT.o8 AS RINSER
      Another ordinary MODELS data card.          |  DEFAULT.o9 AS CLOSE1
      Another ordinary MODELS data card.          |  DEFAULT.o10 AS RPpos
      Another ordinary MODELS data card.          |  DEFAULT.o11 AS RPcero
      Another ordinary MODELS data card.          |  DEFAULT.o12 AS LPpos
      Another ordinary MODELS data card.          |  DEFAULT.o13 AS LPcero
      Another ordinary MODELS data card.          |  DEF.o1 AS CPpos
      Another ordinary MODELS data card.          |  DEF.o2 AS CPcero
      Another ordinary MODELS data card.          |  DEF.o3 AS Xp
      Another ordinary MODELS data card.          |  DEF.o4 AS CR
      Another ordinary MODELS data card.          |  DEF.o5 AS SIMET
      Another ordinary MODELS data card.          |  DEF.o6 AS ENC1
      Another ordinary MODELS data card.          |  DEF.o7 AS ENC2
      Another ordinary MODELS data card.          |  DEF.o8 AS ENC1AS
      Another ordinary MODELS data card.          |  DEF.o9 AS ENC2AS
Termination of data for Laurent Dube`s MODELS.    |ENDMODELS
Comment card.   NUMDCD = 153.                     |C        1         2         3         4         5         6         7         8
Comment card.   NUMDCD = 154.                     |C 345678901234567890123456789012345678901234567890123456789012345678901234567890
Optional blank card follows last of MODELS data.  |BLANK MODELS
Comment card.   NUMDCD = 156.                     |C < n1 >< n2 ><ref1><ref2>< R  >< L  >< C  >
Comment card.   NUMDCD = 157.                     |C < n1 >< n2 ><ref1><ref2>< R  >< A  >< B  ><Leng><><>0
1st of coupled R-L.   3.20030E+00  3.88476E-02    |51IFUENASB1A              3.2003 12.20434038
2nd coil. 2.461E+00 2.987E-02 0.000E+00 0.000E+00 |52IFUENBSB1B              2.46079.3839658099
Zca, Zcc= 2.465E-01 2.993E-03 2.707E+00 3.286E-02 |53IFUENCSB1C
Series R-L-C.   1.000E+09  0.000E+00  0.000E+00   |  SB1A                      1.E9                                               0
Series R-L-C.   1.000E+09  0.000E+00  0.000E+00   |  SB1B                      1.E9                                               0
Series R-L-C.   1.000E+09  0.000E+00  0.000E+00   |  SB1C                      1.E9                                               0
Series R-L-C.   1.000E+09  0.000E+00  0.000E+00   |  RSNSHA                    1.E9                                               0
Series R-L-C.   1.000E+09  0.000E+00  0.000E+00   |  RSNSHB                    1.E9                                               0
Series R-L-C.   1.000E+09  0.000E+00  0.000E+00   |  RSNSHC                    1.E9                                               0
Series R-L-C.   1.000E+09  0.000E+00  0.000E+00   |  RSNNHA                    1.E9                                               0
Series R-L-C.   1.000E+09  0.000E+00  0.000E+00   |  RSNNHB                    1.E9                                               0
Series R-L-C.   1.000E+09  0.000E+00  0.000E+00   |  RSNNHC                    1.E9                                               0
Series R-L-C.   1.000E+09  0.000E+00  0.000E+00   |  SE2A                      1.E9                                               0
Series R-L-C.   1.000E+09  0.000E+00  0.000E+00   |  SE2B                      1.E9                                               0
Series R-L-C.   1.000E+09  0.000E+00  0.000E+00   |  SE2C                      1.E9                                               0
Series R-L-C.   2.500E+02  0.000E+00  3.000E-10   |  X0001B                    250.       .0003                                   0
Series R-L-C.   2.500E+02  0.000E+00  3.000E-10   |  X0002B                    250.       .0003                                   0
Series R-L-C.   1.000E-06  0.000E+00  0.000E+00   |  X0001ALN1A               1.E-6                                               0
Series R-L-C.   1.000E-06  0.000E+00  0.000E+00   |  SB1A  X0002A             1.E-6                                               0
Series R-L-C.   1.000E-06  0.000E+00  0.000E+00   |  X0001BLN1B               1.E-6                                               0
Series R-L-C.   1.000E-06  0.000E+00  0.000E+00   |  SB1B  X0002B             1.E-6                                               0
Series R-L-C.   1.000E-06  0.000E+00  0.000E+00   |  X0001CLN1C               1.E-6                                               0
Series R-L-C.   1.000E-06  0.000E+00  0.000E+00   |  SB1C  X0002C             1.E-6                                               0
Series R-L-C.   4.200E+02  0.000E+00  0.000E+00   |  XX0005X0002A              420.                                               0
Series R-L-C.   4.200E+02  0.000E+00  0.000E+00   |  XX0003X0002B              420.                                               0
Series R-L-C.   4.200E+02  0.000E+00  0.000E+00   |  XX0004X0002C              420.                                               0
Series R-L-C.   2.500E+02  0.000E+00  3.000E-10   |  X0001A                    250.       .0003                                   0
Series R-L-C.   1.000E+06  0.000E+00  0.000E+00   |  X0001AX0002A              1.E6                                               0
Series R-L-C.   1.000E+06  0.000E+00  0.000E+00   |  X0001BX0002B              1.E6                                               0
Series R-L-C.   1.000E+06  0.000E+00  0.000E+00   |  X0001CX0002C              1.E6                                               0
Series R-L-C.   2.500E+02  0.000E+00  3.000E-10   |  X0002C                    250.       .0003                                   0
Series R-L-C.   2.500E+02  0.000E+00  3.000E-10   |  X0002A                    250.       .0003                                   0
Series R-L-C.   2.500E+02  0.000E+00  3.000E-10   |  X0001C                    250.       .0003                                   0
Series R-L-C.   1.250E+02  0.000E+00  6.000E-10   |  X0001AX0002A              125.       .0006                                   0
Series R-L-C.   1.250E+02  0.000E+00  6.000E-10   |  X0001BX0002B              125.       .0006                                   0
Series R-L-C.   1.250E+02  0.000E+00  6.000E-10   |  X0001CX0002C              125.       .0006                                   0
 1.992E-01 9.560E-01 5.720E-03 7.294E+02 6.137E-04|-1LN1A  VFF2A             .19922.95597.00572147.09 0 0                         0
 2.450E-02 3.631E-01 1.381E-02 2.893E+02 5.877E-04|-2LN1B  VFF2B              .0245.36315.01381147.09 0 0                         0
3rd or later transposed distributed phase.        |-3LN1C  VFF2C                                                                  0
Blank card ending branches.  IBR, NTOT = 39  31   |BLANK BRANCH
Comment card.   NUMDCD = 198.                     |C < n 1>< n 2>< Tclose ><Top/Tde ><   Ie   ><Vf/CLOP ><  type  >
Switch.  -1.00E+00  1.00E+01  0.00E+00  0.00E+00  |  LN1A  COMPA        -1.       10.                                             0
Switch.  -1.00E+00  1.00E+01  0.00E+00  0.00E+00  |  LN1B  COMPB        -1.       10.                                             0
Switch.  -1.00E+00  1.00E+01  0.00E+00  0.00E+00  |  LN1C  COMPC        -1.       10.                                             0
Switch.  -1.00E+00  1.00E+01  0.00E+00  0.00E+00  |  VFF2A RSNNHA       -1.       10.                                             0
Switch.  -1.00E+00  1.00E+01  0.00E+00  0.00E+00  |  VFF2B RSNNHB       -1.       10.                                             0
Switch.  -1.00E+00  1.00E+01  0.00E+00  0.00E+00  |  VFF2C RSNNHC       -1.       10.                                             0
Switch.   2.00E+00 -1.00E+00  0.00E+00  0.00E+00  |  VFF2A SE2A          2.       -1.                                             0
Switch.   2.00E+00 -1.00E+00  0.00E+00  0.00E+00  |  VFF2B SE2B          2.       -1.                                             0
Switch.   2.00E+00 -1.00E+00  0.00E+00  0.00E+00  |  VFF2C SE2C          2.       -1.                                             0
Switch.   5.99E-02  1.00E+03  0.00E+00  0.00E+00  |  X0001BXX0003.059928188      1.E3                                             0
Switch.   5.99E-02  1.00E+03  0.00E+00  0.00E+00  |  X0001CXX0004.059928188      1.E3                                             0
Switch.   6.74E-02  1.00E+03  0.00E+00  0.00E+00  |  XX0005X0002A.067428188      1.E3                                             0
Switch.   6.74E-02  1.00E+03  0.00E+00  0.00E+00  |  XX0003X0002B.067428188      1.E3                                             0
Switch.   6.74E-02  1.00E+03  0.00E+00  0.00E+00  |  XX0004X0002C.067428188      1.E3                                             0
Switch.   5.99E-02  1.00E+03  0.00E+00  0.00E+00  |  X0001AXX0005.059928188      1.E3                                             0
Permanently-closed switch used for metering.      |  VFUENAIFUENA                                        MEASURING                1
Permanently-closed switch used for metering.      |  VFUENBIFUENB                                        MEASURING                1
Permanently-closed switch used for metering.      |  VFUENCIFUENC                                        MEASURING                1
Permanently-closed switch used for metering.      |  COMPA RSNSHA                                        MEASURING                1
Permanently-closed switch used for metering.      |  COMPB RSNSHB                                        MEASURING                1
Permanently-closed switch used for metering.      |  COMPC RSNSHC                                        MEASURING                1
Blank card ending switches.   KSWTCH = 21.        |BLANK SWITCH
Comment card.   NUMDCD = 221.                     |C < n 1><>< Ampl.  >< Freq.  ><Phase/T0><   A1   ><   T1   >< TSTART >< TSTOP  >
Source.   4.29E+05  5.00E+01  0.00E+00 -1.00E+00  |14VFUENA  428660.705       50.                                     -1.      100.
Source.   4.29E+05  5.00E+01 -1.20E+02 -1.00E+00  |14VFUENB  428660.705       50.     -120.                           -1.      100.
Source.   4.29E+05  5.00E+01 -2.40E+02 -1.00E+00  |14VFUENC  428660.705       50.     -240.                           -1.      100.
Blank card ends electric sources.  KCONST = 3     |BLANK SOURCE
Pi-equivalent branches of distributed circuits are added to the table of List Size 3 between indices  40   and  45.

Sinusoidal steady-state phasor solution, branch by branch.   All flows are away from a bus,  and the real part,  magnitude,  or  "P"
is printed above the imaginary part,  the angle,  or  "Q".   The first solution frequency  =  5.00000000E+01  Hertz.
  Bus K                        Phasor  node  voltage              Phasor  branch  current               Power flow       Power loss
             Bus M         Rectangular            Polar          Rectangular            Polar            P  and  Q        P  and  Q

 IFUENA                    428660.705       428660.705       .4288387723978  .44581023286001      91913.165253688  .24452808074754
                                  0.0              0.0      .12183624670451       15.8602378      -26113.20570345        0.9325164

            SB1A      428660.79306361  428660.79308541      -.4288387723978  .44581023286001      -91912.92072561
                      -4.324010830404       -0.0005780      -.1218362467045     -164.1397622      26114.138219872

 IFUENB                  -214330.3525       428660.705      -.1089061014456  .44581023286063      91913.165253479  .24452808074697
                      -371231.0601341     -120.0000000      -.4323033943785     -104.1397622      -26113.20570468        0.9325164

            SB1B       -214334.141235  428660.79308541      .10890610144562  .44581023286063       -91912.9207254
                      -371228.9743941     -120.0005780      .43230339437849       75.8602378      26114.138221094

 IFUENC                  -214330.3525       428660.705      -.3199326709525  .44581023286047       91913.16525333  .24452808074533
                      371231.06013415      120.0000000      .31046714766675      135.8602378      -26113.20570507        0.9325164

            SB1C      -214326.6518286  428660.79308542      .31993267095246  .44581023286047      -91912.92072525
                      371233.29840488      119.9994220      -.3104671476668      -44.1397622      26114.138221491

 SB1A                 428660.79306361  428660.79308541      .42866079306E-3  .42866079309E-3      91.875037764308  91.875037764308
                      -4.324010830404       -0.0005780       -.432401083E-8       -0.0005780      .2075230721E-19        0.0000000

            TERRA                 0.0              0.0      -.4286607931E-3  .42866079309E-3                  0.0
                                  0.0              0.0      .43240108304E-8      179.9994220                  0.0

 SB1B                  -214334.141235  428660.79308541      -.2143341412E-3  .42866079309E-3      91.875037764308  91.875037764308
                      -371228.9743941     -120.0005780      -.3712289744E-3     -120.0005780      -.241473508E-14        0.0000000

            TERRA                 0.0              0.0      .21433414124E-3  .42866079309E-3                  0.0
                                  0.0              0.0      .37122897439E-3       59.9994220                  0.0

 SB1C                 -214326.6518286  428660.79308542      -.2143266518E-3  .42866079309E-3      91.875037764309  91.875037764309
                      371233.29840488      119.9994220       .3712332984E-3      119.9994220      .4822531263E-14        0.0000000

            TERRA                 0.0              0.0      .21432665183E-3  .42866079309E-3                  0.0
                                  0.0              0.0      -.3712332984E-3      -60.0005780                  0.0

 RSNSHA                126.7222248735  675.46832208274      .12672222487E-6  .67546832208E-6      .22812872707E-3  .22812872707E-3
                      -663.4748916578      -79.1868669      -.6634748917E-6      -79.1868669      .3206152054E-20        0.0000000

            TERRA                 0.0              0.0      -.1267222249E-6  .67546832208E-6                  0.0
                                  0.0              0.0      .66347489166E-6      100.8131331                  0.0

 RSNSHB               -637.9472233856  675.46832208274      -.6379472234E-6  .67546832208E-6      .22812872707E-3  .22812872707E-3
                      221.99277986438      160.8131331      .22199277986E-6      160.8131331      .1502159992E-20        0.0000000

            TERRA                 0.0              0.0      .63794722339E-6  .67546832208E-6                  0.0
                                  0.0              0.0      -.2219927799E-6      -19.1868669                  0.0

 RSNSHC               511.22499851206  675.46832208274      .51122499851E-6  .67546832208E-6      .22812872707E-3  .22812872707E-3
                      441.48211179346       40.8131331      .44148211179E-6       40.8131331       -.10932019E-19        0.0000000

            TERRA                 0.0              0.0      -.5112249985E-6  .67546832208E-6                  0.0
                                  0.0              0.0      -.4414821118E-6     -139.1868669                  0.0

 RSNNHA               128.12793377813  687.14631558853      .12812793378E-6  .68714631559E-6      .23608502951E-3  .23608502951E-3
                      -675.0950241356      -79.2535111      -.6750950241E-6      -79.2535111       -.11348918E-20        0.0000000

            TERRA                 0.0              0.0      -.1281279338E-6  .68714631559E-6                  0.0
                                  0.0              0.0      .67509502414E-6      100.7464889                  0.0

 RSNNHB                -648.713407759  687.14631558854      -.6487134078E-6  .68714631559E-6      .23608502951E-3  .23608502951E-3
                      226.58546648153      160.7464889      .22658546648E-6      160.7464889      .8536503922E-20        0.0000000

            TERRA                 0.0              0.0      .64871340776E-6  .68714631559E-6                  0.0
                                  0.0              0.0      -.2265854665E-6      -19.2535111                  0.0

 RSNNHC               520.58547398083  687.14631558853      .52058547398E-6  .68714631559E-6      .23608502951E-3  .23608502951E-3
                      448.50955765407       40.7464889      .44850955765E-6       40.7464889       .595570041E-21        0.0000000

            TERRA                 0.0              0.0       -.520585474E-6  .68714631559E-6                  0.0
                                  0.0              0.0      -.4485095577E-6     -139.2535111                  0.0

 X0001B               -637.9472235292  675.46832208313      -.2092374321E-4  .63661389534E-4      .50659656467E-6  .50659656467E-6
                      221.99277945271      160.8131332      -.6012461632E-4     -109.1882168       -.021500625979       -0.0215006

            TERRA                 0.0              0.0      .20923743205E-4  .63661389534E-4                  0.0
                                  0.0              0.0       .6012461632E-4       70.8117832                  0.0

 X0002B               -214334.1412349  428660.79308499      .03498703057975  .04040032794192      .20402331222634  .20402331222634
                      -371228.9743936     -120.0005780       -.020201341268      -30.0019280      -8659.018305835    -8659.0183058

            TERRA                 0.0              0.0      -.0349870305798  .04040032794192                  0.0
                                  0.0              0.0        .020201341268      149.9980720                  0.0

 X0001A               126.72222530185  675.46832208312      .42834919611323  .43601938046185      .12929483377262  .95056450069E-7
                      -663.4748915764      -79.1868668      .08142399110511       10.7628268      -147.2585828969        0.0000000

            LN1A       126.7222248735  675.46832208274      -.4283491961132  .43601938046185      -.1292947387162
                      -663.4748916578      -79.1868669      -.0814239911051     -169.2371732      147.25858289693

 SB1A                 428660.79306361  428660.79308541      .42840838432312  .44539624593346      91820.675478888  .99188902425E-7
                      -4.324010830404       -0.0005780      .12183625131001       15.8753692      -26114.13827647        0.0000000

            X0002A    428660.79306318  428660.79308499      -.4284083843231  .44539624593346      -91820.67547879
                       -4.32401095224       -0.0005780        -.12183625131     -164.1246308      26114.138276471

 X0001B               -637.9472235292  675.46832208313      -.1436594629922  .43601939244569       .1293326690794  .95056455297E-7
                      221.99277945271      160.8131332      -.4116732554849     -109.2371879      -147.2585869111        0.0000000

            LN1B      -637.9472233856  675.46832208274      .14365946299222  .43601939244569      -.1293325740229
                      221.99277986438      160.8131331      .41167325548486       70.7628121      147.25858691107

 SB1B                  -214334.141235  428660.79308541      -.1086737029254   .4453631245808      91813.296070604  .99174158663E-7
                      -371228.9743941     -120.0005780      -.4319008439779     -104.1234212      -26114.13460604        0.0000000

            X0002B    -214334.1412349  428660.79308499      .10867370292544   .4453631245808       -91813.2960705
                      -371228.9743936     -120.0005780      .43190084397793       75.8765788      26114.134606038

 X0001C               511.22499822737  675.46832208312      -.2846898041753  .43601940041955      .12931788691956  .95056458774E-7
                      441.48211212371       40.8131332      .33024934964487      130.7628178      -147.2585896171        0.0000000

            LN1C      511.22499851206  675.46832208274      .28468980417529  .43601940041955      -.1293177918631
                      441.48211179346       40.8131331      -.3302493496449      -49.2371822      147.25858961709

 SB1C                 -214326.6518286  428660.79308542      -.3197055775672  .44537223930907      91815.277578172  .99178215862E-7
                      371233.29840488      119.9994220      .31007220968604      135.8763540      -26114.30877581        0.0000000

            X0002C    -214326.6518283  428660.79308499      .31970557756722  .44537223930907      -91815.27757807
                      371233.29840457      119.9994220       -.310072209686      -44.1236460       26114.30877581

 XX0005               428660.79306318  428660.79308499                  0.0              0.0                  0.0              0.0
                       -4.32401095224       -0.0005780                  0.0              0.0                  0.0              0.0

            X0002A    428660.79306318  428660.79308499                  0.0              0.0                  0.0
                       -4.32401095224       -0.0005780                  0.0              0.0                  0.0

 XX0003               -214334.1412349  428660.79308499                  0.0              0.0                  0.0              0.0
                      -371228.9743936     -120.0005780                  0.0              0.0                  0.0              0.0

            X0002B    -214334.1412349  428660.79308499                  0.0              0.0                  0.0
                      -371228.9743936     -120.0005780                  0.0              0.0                  0.0

 XX0004               -214326.6518283  428660.79308499                  0.0              0.0                  0.0              0.0
                      371233.29840457      119.9994220                  0.0              0.0                  0.0              0.0

            X0002C    -214326.6518283  428660.79308499                  0.0              0.0                  0.0
                      371233.29840457      119.9994220                  0.0              0.0                  0.0

 X0001A               126.72222530185  675.46832208312      .62531316729E-4  .63661389534E-4      .50659656468E-6  .50659656468E-6
                      -663.4748915764      -79.1868668      .11941815002E-4       10.8117832       -.021500625979       -0.0215006

            TERRA                 0.0              0.0      -.6253131673E-4  .63661389534E-4                  0.0
                                  0.0              0.0        -.11941815E-4     -169.1882168                  0.0

 X0001A               126.72222530185  675.46832208312      -.4285340708379  .42853457777496      -26.93373050759  91820.942174383
                      -663.4748915764      -79.1868668      -.6591508806E-3     -179.9118704      142.20256262618        0.0000000

            X0002A    428660.79306318  428660.79308499      .42853407083788  .42853457777496       91847.87590489
                       -4.32401095224       -0.0005780      .65915088062E-3        0.0881296      -142.2025626262

 X0001B               -637.9472235292  675.46832208313      .21369619401139  .42853457777496      -26.93373050759  91820.942174383
                      221.99277945271      160.8131332      .37145096717307       60.0881296      142.20256262618        0.0000000

            X0002B    -214334.1412349  428660.79308499      -.2136961940114  .42853457777496       91847.87590489
                      -371228.9743936     -120.0005780      -.3714509671731     -119.9118704      -142.2025626262

 X0001C               511.22499822737  675.46832208312      .21483787682649  .42853457777496      -26.93373050759  91820.942174383
                      441.48211212371       40.8131332      -.3707918162924      -59.9118704      142.20256262618        0.0000000

            X0002C    -214326.6518283  428660.79308499      -.2148378768265  .42853457777496       91847.87590489
                      371233.29840457      119.9994220      .37079181629245      120.0881296      -142.2025626262

 X0002C               -214326.6518283  428660.79308499      -.0349883900185  .04040032794192      .20402331222666  .20402331222666
                      371233.29840457      119.9994220       -.020198986651     -150.0019280      -8659.018305835    -8659.0183058

            TERRA                 0.0              0.0      .03498839001848  .04040032794192                  0.0
                                  0.0              0.0      .02019898665105       29.9980720                  0.0

 X0002A               428660.79306318  428660.79308499      .13594387317E-5  .04040032794192      .20402331222682  .20402331222682
                       -4.32401095224       -0.0005780      .04040032791905       89.9980720      -8659.018305835    -8659.0183058

            TERRA                 0.0              0.0      -.1359438732E-5  .04040032794192                  0.0
                                  0.0              0.0       -.040400327919      -90.0019280                  0.0

 X0001C               511.22499822737  675.46832208312      -.4160757352E-4  .63661389534E-4      .50659656468E-6  .50659656468E-6
                      441.48211212371       40.8131332      .48182801318E-4      130.8117832       -.021500625979       -0.0215006

            TERRA                 0.0              0.0      .41607573524E-4  .63661389534E-4                  0.0
                                  0.0              0.0      -.4818280132E-4      -49.1882168                  0.0

 X0001A               126.72222530185  675.46832208312      .12234375599E-3   .0807768648584      26.804431927833  .40780636852201
                      -663.4748915764      -79.1868668      -.0807767722081      -89.9132204      5.0775201583332   -17307.8398332

            X0002A    428660.79306318  428660.79308499       -.122343756E-3   .0807768648584      -26.39662555931
                       -4.32401095224       -0.0005780      .08077677220809       90.0867796      -17312.91735339

 X0001B               -637.9472235292  675.46832208313      -.0700159086459   .0807768648584      26.804431927833  .40780636852193
                      221.99277945271      160.8131332      .04028243330336      150.0867796      5.0775201583333   -17307.8398332

            X0002B    -214334.1412349  428660.79308499      .07001590864591   .0807768648584      -26.39662555931
                      -371228.9743936     -120.0005780      -.0402824333034      -29.9132204      -17312.91735339

 X0001C               511.22499822737  675.46832208312      .06989356488992   .0807768648584      26.804431927833  .40780636852183
                      441.48211212371       40.8131332      .04049433890473       30.0867796      5.0775201583334   -17307.8398332

            X0002C    -214326.6518283  428660.79308499      -.0698935648899   .0807768648584      -26.39662555931
                      371233.29840457      119.9994220      -.0404943389047     -149.9132204      -17312.91735339

 LN1A                  126.7222248735  675.46832208274      .42834906431719   .4360193776693       .1290613419787  .12882525694943
                      -663.4748916578      -79.1868669      .08142466949098       10.7629176      -147.2585821585     -147.2585822

            VFF2A     128.12793377813  687.14631558853      -.1281279345E-6  .68714631486E-6      -.2360850293E-3
                      -675.0950241356      -79.2535111      .67509502325E-6      100.7464889      .3156250575E-12

 LN1B                 -637.9472233856  675.46832208274      -.1436586998847   .4360193776693      .12906134197928   .1288252569498
                      221.99277986438      160.8131331      -.4116735061315     -109.2370824      -147.2585821585     -147.2585822

            VFF2B      -648.713407759  687.14631558854      .64871340736E-6  .68714631548E-6      -.2360850295E-3
                      226.58546648153      160.7464889      -.2265854673E-6      -19.2535112      -.304221016E-12

 LN1C                 511.22499851206  675.46832208274      -.2846903644325   .4360193776693      .12906134197966  .12882525695005
                      441.48211179346       40.8131331      .33024883664049      130.7629176      -147.2585821585     -147.2585822

            VFF2C     520.58547398083  687.14631558853      -.5205854749E-6  .68714631588E-6      -.2360850296E-3
                      448.50955765407       40.7464889      -.4485095571E-6     -139.2535112      -.357151196E-12
     Total network loss  P-loss  by summing injections =   2.757471471101E+05

Output for steady-state phasor switch currents.
      Node-K    Node-M            I-real            I-imag            I-magn          Degrees        Power            Reactive
      LN1A      COMPA         1.14687750E-07   -7.56421036E-07    7.65066052E-07     -81.3785    2.58199926E-04    9.88145702E-06
      LN1B      COMPB        -6.87914996E-07    2.75286474E-07    7.40951878E-07     158.1899    2.49982536E-04    1.14530398E-05
      LN1C      COMPC         5.47637443E-07    5.20440150E-07    7.55489721E-07      43.5413    2.54865484E-04   -1.21449401E-05
      VFF2A     RSNNHA        1.28127935E-07   -6.75095024E-07    6.87146315E-07     -79.2535    2.36085029E-04   -3.11048736E-13
      VFF2B     RSNNHB       -6.48713407E-07    2.26585465E-07    6.87146315E-07     160.7465    2.36085029E-04   -3.32627499E-13
      VFF2C     RSNNHC        5.20585475E-07    4.48509556E-07    6.87146315E-07      40.7465    2.36085029E-04    6.69018709E-13
      VFF2A     SE2A              Open              Open              Open             Open          Open              Open
      VFF2B     SE2B              Open              Open              Open             Open          Open              Open
      VFF2C     SE2C              Open              Open              Open             Open          Open              Open
      X0001B    XX0003            Open              Open              Open             Open          Open              Open
      X0001C    XX0004            Open              Open              Open             Open          Open              Open
      XX0005    X0002A            Open              Open              Open             Open          Open              Open
      XX0003    X0002B            Open              Open              Open             Open          Open              Open
      XX0004    X0002C            Open              Open              Open             Open          Open              Open
      X0001A    XX0005            Open              Open              Open             Open          Open              Open
      VFUENA    IFUENA        4.28838772E-01    1.21836247E-01    4.45810233E-01      15.8602    9.19131653E+04   -2.61132057E+04
      VFUENB    IFUENB       -1.08906101E-01   -4.32303394E-01    4.45810233E-01    -104.1398    9.19131653E+04   -2.61132057E+04
      VFUENC    IFUENC       -3.19932671E-01    3.10467148E-01    4.45810233E-01     135.8602    9.19131653E+04   -2.61132057E+04
      COMPA     RSNSHA        1.14687750E-07   -7.56421036E-07    7.65066052E-07     -81.3785    2.58199926E-04    9.88145702E-06
      COMPB     RSNSHB       -6.87914996E-07    2.75286474E-07    7.40951878E-07     158.1899    2.49982536E-04    1.14530398E-05
      COMPC     RSNSHC        5.47637443E-07    5.20440150E-07    7.55489721E-07      43.5413    2.54865484E-04   -1.21449401E-05

Solution at nodes with known voltage.   Nodes that are shorted together by switches are shown as a group of names, with the printed
result applying to the composite group.   The entry "MVA" is  SQRT( P**2 + Q**2 )  in units of power,  while  "P.F."  is the
associated power factor.
              Node                Source  node  voltage             Injected  source  current              Injected  source  power
              name         Rectangular            Polar          Rectangular            Polar            P  and  Q    MVA and P.F.

               VFUENA
              IFUENA       428660.705       428660.705      .42883877239886  .44581023286296      91913.165253914  95550.664357625
                                  0.0              0.0      .12183624671159       15.8602378      -26113.20570497        0.9619312

               VFUENB
              IFUENB     -214330.3525       428660.705      -.1089061014471  .44581023286115      91913.165253666  95550.664357238
                      -371231.0601341     -120.0000000      -.4323033943787     -104.1397622      -26113.20570443        0.9619312

               VFUENC
              IFUENC     -214330.3525       428660.705      -.3199326709539   .4458102328619      91913.165253594  95550.664357399
                      371231.06013415      120.0000000      .31046714766736      135.8602378      -26113.20570527        0.9619312

  +++  Node  "COMPC "  has no connected linear branches.  Add (to ground) the conductance  G = 1.00000000E-18  mhos.
  +++  Node  "COMPB "  has no connected linear branches.  Add (to ground) the conductance  G = 1.00000000E-18  mhos.
  +++  Node  "COMPA "  has no connected linear branches.  Add (to ground) the conductance  G = 1.00000000E-18  mhos.
Card of names for time-step loop output.          |  LN1A  LN1B  LN1C  COMPA COMPB COMPC SB1A  SB1B  SB1C  SE2A  SE2B  SE2C  VFF2A
Card of names for time-step loop output.          |  VFF2B VFF2C IFUENAIFUENBIFUENC
Card of names for time-step loop output.          |-5VFF2A VFF2B VFF2B VFF2C VFF2C VFF2A LN1A  LN1B  LN1B  LN1C  LN1C  LN1A
Card of names for time-step loop output.          |-5SB1A  SB1B  SB1B  SB1C  SB1C  SB1A
Blank card ending requests for output variables.  |BLANK OUTPUT

Column headings for the  55   EMTP output variables follow.  These are divided among the 5 possible classes as follows ....
  First  27     output variables are electric-network voltage differences (upper voltage minus lower voltage);
  Next   6     output variables are branch currents (flowing from the upper node to the lower node);
  Next   22     output variables belong to MODELS (with "MODELS" an internally-added upper name of pair).
   Step      Time      LN1A       LN1B       LN1C       COMPA      COMPB      COMPC      SB1A       SB1B       SB1C       SE2A
 

                       SE2B       SE2C       VFF2A      VFF2B      VFF2C      IFUENA     IFUENB     IFUENC     VFF2A      VFF2B
                                                                                                               VFF2B      VFF2C

                       VFF2C      LN1A       LN1B       LN1C       SB1A       SB1B       SB1C       VFUENA     VFUENB     VFUENC
                       VFF2A      LN1B       LN1C       LN1A       SB1B       SB1C       SB1A       IFUENA     IFUENB     IFUENC

                       COMPA      COMPB      COMPC      MODELS     MODELS     MODELS     MODELS     MODELS     MODELS     MODELS
                       RSNSHA     RSNSHB     RSNSHC     ANVOL      LONG       R0F        R1F        X0F        X1F        RDIVX

                       MODELS     MODELS     MODELS     MODELS     MODELS     MODELS     MODELS     MODELS     MODELS     MODELS
                       RINSER     CLOSE1     RPPOS      RPCERO     LPPOS      LPCERO     CPPOS      CPCERO     XP         CR

                       MODELS     MODELS     MODELS     MODELS     MODELS
                       SIMET      ENC1       ENC2       ENC1AS     ENC2AS
 ***      Phasor I(0) =  1.1468775E-07                     Switch  "LN1A  "  to  "COMPA "  closed in the steady-state.
 ***      Phasor I(0) = -6.8791500E-07                     Switch  "LN1B  "  to  "COMPB "  closed in the steady-state.
 ***      Phasor I(0) =  5.4763744E-07                     Switch  "LN1C  "  to  "COMPC "  closed in the steady-state.
 ***      Phasor I(0) =  1.2812793E-07                     Switch  "VFF2A "  to  "RSNNHA"  closed in the steady-state.
 ***      Phasor I(0) = -6.4871341E-07                     Switch  "VFF2B "  to  "RSNNHB"  closed in the steady-state.
 ***      Phasor I(0) =  5.2058547E-07                     Switch  "VFF2C "  to  "RSNNHC"  closed in the steady-state.
 ***      Phasor I(0) =  4.2883877E-01                     Switch  "VFUENA"  to  "IFUENA"  closed in the steady-state.
 ***      Phasor I(0) = -1.0890610E-01                     Switch  "VFUENB"  to  "IFUENB"  closed in the steady-state.
 ***      Phasor I(0) = -3.1993267E-01                     Switch  "VFUENC"  to  "IFUENC"  closed in the steady-state.
 ***      Phasor I(0) =  1.1468775E-07                     Switch  "COMPA "  to  "RSNSHA"  closed in the steady-state.
 ***      Phasor I(0) = -6.8791500E-07                     Switch  "COMPB "  to  "RSNSHB"  closed in the steady-state.
 ***      Phasor I(0) =  5.4763744E-07                     Switch  "COMPC "  to  "RSNSHC"  closed in the steady-state.
      0       0.0  126.722225 -637.94722 511.224999 126.722225 -637.94722 511.224999 428660.793 -214334.14 -214326.65        0.0
                          0.0        0.0 128.127934 -648.71341 520.585474 428660.705 -214330.35 -214330.35 776.841342 -1169.2989
                    392.45754 764.669448 -1149.1722 384.502774 642994.934 -7.4894065 -642987.44 .428838772  -.1089061 -.31993267
                   .114688E-6 -.68791E-6 .547637E-6        0.0   147.0899   3.200332   2.460748   12.20434   9.383966    .262229
                         420.    .059928    .024499    .199218    .363147    .955974    .013807    .005716   2411.373   48.22745
                          0.0        0.0        0.0        0.0        0.0
    500     .5E-3  228.952376 -664.82033 435.867951 228.952376 -664.82033 435.867951 423383.947 -153622.33 -269761.62        0.0
                          0.0        0.0 232.158593 -676.17244 444.013846  423383.18 -153618.26 -269764.92 908.331031 -1120.1863
                   211.855253 893.772702 -1100.6883 206.915575 577006.275 116139.291 -693145.57 .404495355 -.03993655  -.3645588
                   .246215E-6 -.71064E-6  .46441E-6        0.0   147.0899   3.200332   2.460748   12.20434   9.383966    .262229
                         420.    .059928    .024499    .199218    .363147    .955974    .013807    .005716   2411.373   48.22745
                          0.0        0.0        0.0        0.0        0.0
   1000     .1E-2  325.544993 -675.32337 349.778381 325.544993 -675.32337 349.778381 407681.977  -89127.82 -318554.16        0.0
                          0.0        0.0 330.472492 -686.98172 356.509226 407680.557 -89123.572 -318556.98 1017.45421 -1043.4909
                   26.0367344 1000.86837 -1025.1018 24.2333877 496809.796 229426.337 -726236.13 .370196362 .030014145 -.40021051
                   .354089E-6 -.65238E-6 .355183E-6        0.0   147.0899   3.200332   2.460748   12.20434   9.383966    .262229
                         420.    .059928    .024499    .199218    .363147    .955974    .013807    .005716   2411.373   48.22745
                          0.0        0.0        0.0        0.0        0.0
   1500     .0015  414.121723 -669.19775 255.076032 414.121723 -669.19775 255.076032 381941.531 -22438.693 -359502.84        0.0
                          0.0        0.0 420.649565  -680.8755 260.225934 381939.485 -22434.368 -359505.12 1101.52506 -941.10143
                   -160.42363 1083.31948 -924.27379 -159.04569 404380.224 337064.145 -741444.37 .326780592 .099226453 -.42600705
                   .441887E-6 -.66985E-6 .256419E-6        0.0   147.0899   3.200332   2.460748   12.20434   9.383966    .262229
                         420.    .059928    .024499    .199218    .363147    .955974    .013807    .005716   2411.373   48.22745
                          0.0        0.0        0.0        0.0        0.0
   2000      .002  492.501148 -646.59416 154.093011 492.501148 -646.59416 154.093011 346796.405 44802.9551 -391599.36        0.0
                          0.0        0.0 500.468537 -658.00369 157.535154 346793.795 44807.2448 -391601.04 1158.47223 -815.53884
                   -342.93338 1139.09531 -800.68717 -338.40814  301993.45 436402.315 -738395.77 .275320783 .165994282 -.44131506
                   .488781E-6 -.67373E-6 .156462E-6        0.0   147.0899   3.200332   2.460748   12.20434   9.383966    .262229
                         420.    .059928    .024499    .199218    .363147    .955974    .013807    .005716   2411.373   48.22745
                          0.0        0.0        0.0        0.0        0.0
   2500     .0025  558.753586 -608.06926 49.3156768 558.753586 -608.06926 49.3156768 303112.013   110941.4 -414053.41        0.0
                          0.0        0.0 567.964517 -618.92977 50.9652521 303108.891 110945.554 -414054.45 1186.89429 -669.89502
                   -516.99926 1166.82285 -657.38494 -509.43791 192170.613 524994.812 -717165.42 .217081611 .228674809 -.44575642
                   .638822E-6 -.60702E-6 .535401E-7        0.0   147.0899   3.200332   2.460748   12.20434   9.383966    .262229
                         420.    .059928    .024499    .199218    .363147    .955974    .013807    .005716   2411.373   48.22745
                          0.0        0.0        0.0        0.0        0.0
   3000      .003  611.247789 -554.57177 -56.676021 611.247789 -554.57177 -56.676021 251963.989 174348.103 -426312.09        0.0
                          0.0        0.0 621.475373 -564.61575 -56.859627 251960.441 174352.016 -426312.46 1186.09112 -507.75612
                     -678.335 1165.81956 -497.89575 -667.92381 77615.8867 600660.194 -678276.08 .153495168 .285725602 -.43922077
                   .588218E-6 -.53733E-6 -.58033E-7        0.0   147.0899   3.200332   2.460748   12.20434   9.383966    .262229
                         420.    .059928    .024499    .199218    .363147    .955974    .013807    .005716   2411.373   48.22745
                          0.0        0.0        0.0        0.0        0.0
   3500     .0035  648.691071  -487.4189 -161.27217 648.691071  -487.4189 -161.27217 194611.782 233461.774 -428073.56        0.0
                          0.0        0.0 659.682778 -496.39871 -163.28407 194607.888 233465.353 -428073.24 1156.08148 -333.11463
                   -822.96685 1136.10997 -326.14673 -809.96324 -38849.992 661535.329 -622685.34 .086130077 .335740427  -.4218705
                   .710566E-6 -.48811E-6 -.16559E-6        0.0   147.0899   3.200332   2.460748   12.20434   9.383966    .262229
                         420.    .059928    .024499    .199218    .363147    .955974    .013807    .005716   2411.373   48.22745
                          0.0        0.0        0.0        0.0        0.0
   4000      .004  670.161491 -408.26417 -261.89733 670.161491 -408.26417 -261.89733 132467.583 286826.843 -419294.43        0.0
                          0.0        0.0 681.647107 -415.95893 -265.68818 132463.443 286829.997 -419293.44 1097.60603 -150.27074
                   -947.33529 1078.42566 -146.36684 -932.05882 -154359.26 706121.268 -551762.01 .016643542 .377488527 -.39413207
                   .656224E-6 -.44286E-6 -.27021E-6        0.0   147.0899   3.200332   2.460748   12.20434   9.383966    .262229
                         420.    .059928    .024499    .199218    .363147    .955974    .013807    .005716   2411.373   48.22745
                          0.0        0.0        0.0        0.0        0.0
   4500     .0045  675.130041  -319.0565 -356.07354 675.130041  -319.0565 -356.07354 67061.5919 333129.283 -400190.88        0.0
                          0.0        0.0 686.826968 -325.27681 -361.55016 67057.3081 333131.936 -400189.24 1012.10378 36.2733467
                   -1048.3771 994.186538 37.0170467 -1031.2036 -266067.69 733320.159 -467252.47 -.05325172 .409941061 -.35668934
                   .748863E-6 -.32381E-6 -.36822E-6        0.0   147.0899   3.200332   2.460748   12.20434   9.383966    .262229
                         420.    .059928    .024499    .199218    .363147    .955974    .013807    .005716   2411.373   48.22745
                          0.0        0.0        0.0        0.0        0.0
   5000      .005  663.474555 -221.99253 -441.48202 663.474555 -221.99253 -441.48202 4.32449848 371228.974  -371233.3        0.0
                          0.0        0.0  675.09498 -226.58538  -448.5096 -.45661E-7  371231.06 -371231.06 901.680356 221.924229
                   -1123.6046 885.467089 219.489487 -1104.9566 -371224.65 742462.273 -371237.62 -.12183608 .432299648 -.31046357
                   .694956E-6 -.23063E-6 -.46429E-6        0.0   147.0899   3.200332   2.460748   12.20434   9.383966    .262229
                         420.    .059928    .024499    .199218    .363147    .955974    .013807    .005716   2411.373   48.22745
                          0.0        0.0        0.0        0.0        0.0
   5500     .0055  635.482496 -119.46258 -516.01991 635.482496 -119.46258 -516.01991 -67053.051 400187.777 -333134.73        0.0
                          0.0        0.0 646.740048 -122.31471 -524.42534 -67057.308 400189.244 -333131.94 769.054755 402.110635
                   -1171.1654 754.945078  396.55733 -1151.5024 -467240.83 733322.502 -266081.67  -.1874207  .44401372 -.25659302
                   .719564E-6   -.121E-6 -.55594E-6        0.0   147.0899   3.200332   2.460748   12.20434   9.383966    .262229
                         420.    .059928    .024499    .199218    .363147    .955974    .013807    .005716   2411.373   48.22745
                          0.0        0.0        0.0        0.0        0.0
   6000      .006  591.842737 -13.991042  -577.8517 591.842737 -13.991042  -577.8517 -132459.36 419292.626 -286833.27        0.0
                          0.0        0.0 602.459639 -15.031966 -587.42767 -132463.44  419293.44   -286830. 617.491604 572.395707
                   -1189.8873 605.833779 563.860654 -1169.6944 -551751.98 706125.897 -154373.92 -.24839025 .444794624 -.19640438
                   .644296E-6 -.15223E-7 -.56333E-6        0.0   147.0899   3.200332   2.460748   12.20434   9.383966    .262229
                         420.    .059928    .024499    .199218    .363147    .955974    .013807    .005716   2411.373   48.22745
                          0.0        0.0        0.0        0.0        0.0
   6500     .0065   533.62974 91.8250378 -625.45478  533.62974 91.8250378 -625.45478 -194604.07 428073.102 -233469.03        0.0
                          0.0        0.0 543.345516 92.6205083 -635.96602 -194607.89  428073.24 -233465.35 450.725008 728.586533
                   -1179.3115 441.804702 717.279815 -1159.0845 -622677.18 661542.129 -38864.952 -.30324375  .43462328 -.13137953
                    .52532E-6 .902632E-7 -.67236E-6        0.0   147.0899   3.200332   2.460748   12.20434   9.383966    .262229
                         420.    .059928    .024499    .199218    .363147    .955974    .013807    .005716   2411.373   48.22745
                          0.0        0.0        0.0        0.0        0.0
   7000      .007  462.276845 195.380155   -657.657 462.276845 195.380155   -657.657 -251956.99 426312.997   -174356.        0.0
                          0.0        0.0 470.851391  197.99285 -668.84424 -251960.44 426312.457 -174352.02 272.858541  866.83709
                   -1139.6956 266.896689 853.037156 -1119.9338 -678269.99 600668.999 77600.9926 -.35063018 .413749971 -.06311979
                   .497655E-6 .202731E-6 -.67189E-6        0.0   147.0899   3.200332   2.460748   12.20434   9.383966    .262229
                         420.    .059928    .024499    .199218    .363147    .955974    .013807    .005716   2411.373   48.22745
                          0.0        0.0        0.0        0.0        0.0
   7500     .0075  379.541169 294.124385 -673.66555 379.541169 294.124385 -673.66555  -303105.9  414055.65 -110949.75        0.0
                          0.0        0.0 386.763979 298.489638 -685.25362 -303108.89 414054.446 -110945.55 88.2743411 983.743254
                   -1072.0176 85.4167837 967.789939 -1053.2067 -717161.55 525005.404 192156.143 -.38938313 .382688861 .006694273
                   .403932E-6 .308357E-6 -.65542E-6        0.0   147.0899   3.200332   2.460748   12.20434   9.383966    .262229
                         420.    .059928    .024499    .199218    .363147    .955974    .013807    .005716   2411.373   48.22745
                          0.0        0.0        0.0        0.0        0.0
   8000      .008  287.460099 385.626193 -673.08629 287.460099 385.626193 -673.08629 -346791.32 391602.879 -44811.554        0.0
                          0.0        0.0 293.153171 391.636629  -684.7898  -346793.8  391601.04 -44807.245 -98.483458 1076.42643
                   -977.94297 -98.166094 1058.71249 -960.54639  -738394.2 436414.433 301979.771 -.41854803 .342204606 .076343423
                   .283583E-6 .389959E-6 -.73039E-6        0.0   147.0899   3.200332   2.460748   12.20434   9.383966    .262229
                         420.    .059928    .024499    .199218    .363147    .955974    .013807    .005716   2411.373   48.22745
                          0.0        0.0        0.0        0.0        0.0
   8500     .0085  188.300775 467.632639 -655.93341 188.300775 467.632639 -655.93341  -381937.6 359507.545 22430.0535        0.0
                          0.0        0.0 192.323708 475.140334 -667.46404 -381939.48 359505.117 22434.3679 -282.81663 1142.60438
                   -859.78775 -279.33186 1123.56605 -844.23419 -741445.14 337077.491 404367.652 -.43740691 .293294154 .144112761
                   .210724E-6 .482105E-6 -.66438E-6        0.0   147.0899   3.200332   2.460748   12.20434   9.383966    .262229
                         420.    .059928    .024499    .199218    .363147    .955974    .013807    .005716   2411.373   48.22745
                          0.0        0.0        0.0        0.0        0.0
   9000      .009  84.5048699 538.124393 -622.62926 84.5048699 538.124393 -622.62926  -407679.3 318559.943 89119.3607        0.0
                          0.0        0.0 86.7589334 546.944357 -633.70329 -407680.56 318556.985  89123.572 -460.18542 1180.64765
                   -720.46222 -453.61952 1160.75366 -707.13413 -726239.25 229440.583 496798.665 -.44549528 .237161769 .208333507
                   .853759E-7  .51649E-6 -.67294E-6        0.0   147.0899   3.200332   2.460748   12.20434   9.383966    .262229
                         420.    .059928    .024499    .199218    .363147    .955974    .013807    .005716   2411.373   48.22745
                          0.0        0.0        0.0        0.0        0.0
   9500     .0095  -21.372288 595.365989  -573.9937 -21.372288 595.365989  -573.9937 -423382.59 269768.338 153614.253        0.0
                          0.0        0.0  -20.94259 605.281005 -584.33841 -423383.18 269764.922 153618.258 -626.22359 1189.61942
                   -563.39582 -616.73828 1169.35969 -552.62141 -693150.93 116154.086 576996.844 -.44261431 .175189793 .267424512
                   -.23372E-7 .620364E-6 -.58272E-6        0.0   147.0899   3.200332   2.460748   12.20434   9.383966    .262229
                         420.    .059928    .024499    .199218    .363147    .955974    .013807    .005716   2411.373   48.22745
                          0.0        0.0        0.0        0.0        0.0
  10000       .01  -126.72242 637.947293 -511.22487 -126.72242 637.947293 -511.22487 -428660.79 214334.142 214326.652        0.0
                          0.0        0.0 -128.12792 648.713375 -520.58546 -428660.71 214330.353 214330.352 -776.84129 1169.29884
                   -392.45754 -764.66972 1149.17216 -384.50245 -642994.94  7.4893403 642987.446 -.42883461 .108904017  .31993059
                   -.13678E-6 .631917E-6 -.52364E-6        0.0   147.0899   3.200332   2.460748   12.20434   9.383966    .262229
                         420.    .059928    .024499    .199218    .363147    .955974    .013807    .005716   2411.373   48.22745
                          0.0        0.0        0.0        0.0        0.0
  10500     .0105   -228.9526 664.820402  -435.8678  -228.9526 664.820402  -435.8678 -423383.94 153622.326 269761.618        0.0
                          0.0        0.0 -232.15882 676.172516 -444.01369 -423383.18 153618.258 269764.922 -908.33134 1120.18621
                   -211.85487   -893.773  1100.6882  -206.9152 -577006.27 -116139.29 693145.561 -.40449555 .039936648 .364558899
                    -.2425E-6 .651511E-6 -.46581E-6        0.0   147.0899   3.200332   2.460748   12.20434   9.383966    .262229
                         420.    .059928    .024499    .199218    .363147    .955974    .013807    .005716   2411.373   48.22745
                          0.0        0.0        0.0        0.0        0.0
  11000      .011  -325.54515 675.323417 -349.77827 -325.54515 675.323417 -349.77827 -407681.98 89127.8193 318554.156        0.0
                          0.0        0.0 -330.47293 686.981903 -356.50898 -407680.56  89123.572 318556.985 -1017.4548 1043.49088
                   -26.036048 -1000.8686 1025.10169 -24.233122  -496809.8 -229426.34 726236.132 -.37019649 -.03001408  .40021057
                   -.31574E-6 .718083E-6 -.34549E-6        0.0   147.0899   3.200332   2.460748   12.20434   9.383966    .262229
                         420.    .059928    .024499    .199218    .363147    .955974    .013807    .005716   2411.373   48.22745
                          0.0        0.0        0.0        0.0        0.0
  11500     .0115  -414.12181 669.197768 -255.07596 -414.12181 669.197768 -255.07596 -381941.53 22438.6904 359502.836        0.0
                          0.0        0.0 -420.64959 680.875482 -260.22589 -381939.48 22434.3679 359505.117 -1101.5251 941.101376
                   160.423695 -1083.3196  924.27373 159.045843 -404380.22 -337064.15 741444.362 -.32678182 -.09922584 .426007656
                   -.41797E-6 .713807E-6 -.26742E-6        0.0   147.0899   3.200332   2.460748   12.20434   9.383966    .262229
                         420.    .059928    .024499    .199218    .363147    .955974    .013807    .005716   2411.373   48.22745
                          0.0        0.0        0.0        0.0        0.0
  12000      .012  -492.50156 646.594343 -154.09278 -492.50156 646.594343 -154.09278 -346796.41 -44802.954 391599.362        0.0
                          0.0        0.0 -500.46873 658.003764 -157.53503  -346793.8 -44807.245  391601.04 -1158.4725 815.538798
                   342.933697 -1139.0959 800.687122 338.408785 -301993.45 -436402.32  738395.77 -.27532099 -.16599418 .441315169
                   -.52424E-6 .720154E-6 -.16743E-6        0.0   147.0899   3.200332   2.460748   12.20434   9.383966    .262229
                         420.    .059928    .024499    .199218    .363147    .955974    .013807    .005716   2411.373   48.22745
                          0.0        0.0        0.0        0.0        0.0
  12500     .0125   -558.7539 608.069401 -49.315501  -558.7539 608.069401 -49.315501 -303112.01  -110941.4 414053.412        0.0
                          0.0        0.0 -567.96458 618.929779 -50.965202 -303108.89 -110945.55 414054.446 -1186.8944 669.894981
                   516.999375 -1166.8233 657.384902 509.438398 -192170.61 -524994.81 717165.424 -.21708058 -.22867532 .445755903
                   -.53066E-6 .609853E-6  -.5079E-7        0.0   147.0899   3.200332   2.460748   12.20434   9.383966    .262229
                         420.    .059928    .024499    .199218    .363147    .955974    .013807    .005716   2411.373   48.22745
                          0.0        0.0        0.0        0.0        0.0
  13000      .013  -611.24847 554.572093 56.6763732 -611.24847 554.572093 56.6763732 -251963.99  -174348.1 426312.093        0.0
                          0.0        0.0 -621.47531 564.615703 56.8596083 -251960.44 -174352.02 426312.457  -1186.091 507.756094
                   678.334919 -1165.8206  497.89572 667.924839 -77615.889 -600660.19 678276.084  -.1534951 -.28572564 .439220734
                   -.62861E-6 .557232E-6 .571235E-7        0.0   147.0899   3.200332   2.460748   12.20434   9.383966    .262229
                         420.    .059928    .024499    .199218    .363147    .955974    .013807    .005716   2411.373   48.22745
                          0.0        0.0        0.0        0.0        0.0
  13500     .0135  -648.69119 487.418916 161.272273 -648.69119 487.418916 161.272273 -194611.78 -233461.77 428073.555        0.0
                          0.0        0.0 -659.68307 496.398812  163.28426 -194607.89 -233465.35  428073.24 -1156.0819 333.114551
                   822.967333 -1136.1101 326.146643 809.963462 38849.9941 -661535.33 622685.335 -.08612992 -.33574051 .421870424
                    -.6952E-6 .536902E-6 .158339E-6        0.0   147.0899   3.200332   2.460748   12.20434   9.383966    .262229
                         420.    .059928    .024499    .199218    .363147    .955974    .013807    .005716   2411.373   48.22745
                          0.0        0.0        0.0        0.0        0.0
  14000      .014  -670.16156 408.264164 261.897397 -670.16156 408.264164 261.897397 -132467.58 -286826.84 419294.425        0.0
                          0.0        0.0  -681.6473 415.958983 265.688313 -132463.44   -286830.  419293.44 -1097.6063  150.27067
                   947.335609 -1078.4257 146.366767 932.058958 154359.261 -706121.27 551762.007 -.01664399  -.3774883 .394132292
                   -.69526E-6 .405283E-6  .29002E-6        0.0   147.0899   3.200332   2.460748   12.20434   9.383966    .262229
                         420.    .059928    .024499    .199218    .363147    .955974    .013807    .005716   2411.373   48.22745
                          0.0        0.0        0.0        0.0        0.0
  14500     .0145  -675.13028 319.056585 356.073697 -675.13028 319.056585 356.073697 -67061.593 -333129.28 400190.876        0.0
                          0.0        0.0 -686.82716 325.276878 361.550287 -67057.308 -333131.94 400189.244  -1012.104 -36.273409
                   1048.37745 -994.18687 -37.017111 1031.20398  266067.69 -733320.16 467252.468 .053251585 -.40994099 .356689407
                   -.65316E-6 .332694E-6 .377215E-6        0.0   147.0899   3.200332   2.460748   12.20434   9.383966    .262229
                         420.    .059928    .024499    .199218    .363147    .955974    .013807    .005716   2411.373   48.22745
                          0.0        0.0        0.0        0.0        0.0
  % % % % % %   Suspended simulation;  plot data space exhausted;  SPY SPACE is required.   LIMBUF =  840000.
  % % % % % %   Suspended simulation;  plot data space exhausted;  SPY SPACE is required.   LIMBUF =  840000.
  +++  Time-sharing disabled.   Send  user-keyed interrupt to silence alarm.
   Current values.  INDBUF  INDBEG  LIMBUF  MFLUSH  NUMDCD  KCARD1  KCARD2
                    839994      50  840000    1000     230       1     231
Plot timespan now in memory (in sec) = 0.00000000E+00   1.49990000E-02
   ++++  Begin plot-data copy from memory to disk.   MFLUSH, INDBUF, N4, Tbeg,  Tend = 1001  839994       1  -1.00000E+00
1.00000E+19
  15000      .015  -663.47499 221.992726 441.482267 -663.47499 221.992726 441.482267 -4.3240168 -371228.97 371233.298        0.0
                          0.0        0.0 -675.09516 226.585436  448.50972 -.61533E-6 -371231.06  371231.06 -901.68059 -221.92428
                   1123.60488 -885.46772 -219.48954 1104.95726  371224.65 -742462.27 371237.622 .121836248 -.43229973 .310463485
                   -.68501E-6 .225424E-6 .459549E-6        0.0   147.0899   3.200332   2.460748   12.20434   9.383966    .262229
                         420.    .059928    .024499    .199218    .363147    .955974    .013807    .005716   2411.373   48.22745
                          0.0        0.0        0.0        0.0        0.0
  15500     .0155  -635.48293 119.462777 516.020153 -635.48293 119.462777 516.020153 67053.0509 -400187.78 333134.725        0.0
                          0.0        0.0 -646.73998 122.314652 524.425332 67057.3081 -400189.24 333131.936 -769.05464 -402.11068
                   1171.16532 -754.94571 -396.55738 1151.50308 467240.827  -733322.5 266081.675 .187420736 -.44401374 .256593002
                    -.6181E-6 .126842E-6 .562402E-6        0.0   147.0899   3.200332   2.460748   12.20434   9.383966    .262229
                         420.    .059928    .024499    .199218    .363147    .955974    .013807    .005716   2411.373   48.22745
                          0.0        0.0        0.0        0.0        0.0
  16000      .016  -591.84281 13.9910623 577.851748 -591.84281 13.9910623 577.851748 132459.357 -419292.63  286833.27        0.0
                          0.0        0.0 -602.45992 15.0320882 587.427832 132463.443 -419293.44 286829.997 -617.49201 -572.39574
                   1189.88775 -605.83387 -563.86069 1169.69456 551751.985  -706125.9 154373.912 .248390403  -.4447947 .196404299
                   -.66766E-6 .146403E-7 .631728E-6        0.0   147.0899   3.200332   2.460748   12.20434   9.383966    .262229
                         420.    .059928    .024499    .199218    .363147    .955974    .013807    .005716   2411.373   48.22745
                          0.0        0.0        0.0        0.0        0.0
  16500     .0165  -533.62983  -91.82501 625.454837 -533.62983  -91.82501 625.454837 194604.074  -428073.1 233469.027        0.0
                          0.0        0.0 -543.34524 -92.620658 635.965901 194607.888 -428073.24 233465.353 -450.72458 -728.58656
                   1179.31114 -441.80482 -717.27985 1159.08466 622677.176 -661542.13 38864.9531 .303243717 -.43462326 .131379548
                   -.58696E-6 -.10257E-6  .64692E-6        0.0   147.0899   3.200332   2.460748   12.20434   9.383966    .262229
                         420.    .059928    .024499    .199218    .363147    .955974    .013807    .005716   2411.373   48.22745
                          0.0        0.0        0.0        0.0        0.0
  17000      .017  -462.27699 -195.38012 657.657112 -462.27699 -195.38012 657.657112 251956.994   -426313. 174356.002        0.0
                          0.0        0.0 -470.85163 -197.99277 668.844401 251960.441 -426312.46 174352.016 -272.85887 -866.83717
                   1139.69603 -266.89686 -853.03724  1119.9341  678269.99   -600669. -77600.992 .350630112 -.41374994 .063119824
                   -.50712E-6 -.19799E-6 .648201E-6        0.0   147.0899   3.200332   2.460748   12.20434   9.383966    .262229
                         420.    .059928    .024499    .199218    .363147    .955974    .013807    .005716   2411.373   48.22745
                          0.0        0.0        0.0        0.0        0.0
  17500     .0175  -379.54148 -294.12426 673.665746 -379.54148 -294.12426 673.665746 303105.896 -414055.65 110949.754        0.0
                          0.0        0.0 -386.76424 -298.48954 685.253781 303108.891 -414054.45 110945.554 -88.274694 -983.74332
                   1072.01802 -85.417221 -967.79001 1053.20723 717161.546  -525005.4 -192156.14 .389383024 -.38268881 -.00669422
                   -.37837E-6 -.29282E-6 .728003E-6        0.0   147.0899   3.200332   2.460748   12.20434   9.383966    .262229
                         420.    .059928    .024499    .199218    .363147    .955974    .013807    .005716   2411.373   48.22745
                          0.0        0.0        0.0        0.0        0.0
  18000      .018  -287.46039 -385.62608 673.086467 -287.46039 -385.62608 673.086467 346791.324 -391602.88 44811.5544        0.0
                          0.0        0.0 -293.15324 -391.63662 684.789865 346793.795 -391601.04 44807.2448 98.4833834 -1076.4265
                   977.943105 98.1656941 -1058.7125 960.546853 738394.203 -436414.43 -301979.77 .418547964 -.34220457 -.07634339
                   -.28814E-6 -.41633E-6 .704487E-6        0.0   147.0899   3.200332   2.460748   12.20434   9.383966    .262229
                         420.    .059928    .024499    .199218    .363147    .955974    .013807    .005716   2411.373   48.22745
                          0.0        0.0        0.0        0.0        0.0
  18500     .0185  -188.30098 -467.63256 655.933542 -188.30098 -467.63256 655.933542   381937.6 -359507.55 -22430.054        0.0
                          0.0        0.0 -192.32394 -475.14024 667.464184 381939.485 -359505.12 -22434.368 282.816303 -1142.6044
                   859.788125 279.331576 -1123.5661 844.234526 741445.146 -337077.49 -404367.65 .437406957 -.29329417 -.14411278
                   -.18508E-6  -.4668E-6 .680273E-6        0.0   147.0899   3.200332   2.460748   12.20434   9.383966    .262229
                         420.    .059928    .024499    .199218    .363147    .955974    .013807    .005716   2411.373   48.22745
                          0.0        0.0        0.0        0.0        0.0
  19000      .019  -84.504928 -538.12439 622.629313 -84.504928 -538.12439 622.629313 407679.304 -318559.94 -89119.361        0.0
                          0.0        0.0 -86.758907 -546.94439 633.703297 407680.557 -318556.98 -89123.572 460.185484 -1180.6477
                   720.462204 453.619457 -1160.7537 707.134241 726239.248 -229440.58 -496798.67 .445495367 -.23716181 -.20833355
                   -.81496E-7 -.61117E-6 .692729E-6        0.0   147.0899   3.200332   2.460748   12.20434   9.383966    .262229
                         420.    .059928    .024499    .199218    .363147    .955974    .013807    .005716   2411.373   48.22745
                          0.0        0.0        0.0        0.0        0.0
  19500     .0195  21.3717729 -595.36575 573.993973 21.3717729 -595.36575 573.993973 423382.591 -269768.34 -153614.25        0.0
                          0.0        0.0 20.9422953 -605.28087 584.338577  423383.18 -269764.92 -153618.26 626.223167 -1189.6194
                   563.396282 616.737519 -1169.3597   552.6222 693150.929 -116154.09 -576996.84 .442614253 -.17518977 -.26742449
                   .226483E-7 -.62146E-6 .581029E-6        0.0   147.0899   3.200332   2.460748   12.20434   9.383966    .262229
                         420.    .059928    .024499    .199218    .363147    .955974    .013807    .005716   2411.373   48.22745
                          0.0        0.0        0.0        0.0        0.0
  20000       .02  126.721861 -637.94703 511.225171 126.721861 -637.94703 511.225171 428660.793 -214334.14 -214326.65        0.0
                          0.0        0.0 128.127827 -648.71335 520.585522 428660.705 -214330.35 -214330.35 776.841177 -1169.2989
                   392.457695 764.668893 -1149.1722 384.503311 642994.934 -7.4893469 -642987.44  .42883459 -.10890401 -.31993058
                   .129869E-6 -.64113E-6 .511267E-6        0.0   147.0899   3.200332   2.460748   12.20434   9.383966    .262229
                         420.    .059928    .024499    .199218    .363147    .955974    .013807    .005716   2411.373   48.22745
                          0.0        0.0        0.0        0.0        0.0
  20500     .0205  228.952394 -664.82034 435.867943 228.952394 -664.82034 435.867943 423383.943 -153622.33 -269761.62        0.0
                          0.0        0.0 232.158596 -676.17244 444.013843  423383.18 -153618.26 -269764.92 908.331035 -1120.1863
                   211.855248 893.772731 -1100.6883 206.915549 577006.269 116139.291 -693145.56 .404495485 -.03993662 -.36455887
                   .230214E-6 -.67379E-6 .443601E-6        0.0   147.0899   3.200332   2.460748   12.20434   9.383966    .262229
                         420.    .059928    .024499    .199218    .363147    .955974    .013807    .005716   2411.373   48.22745
                          0.0        0.0        0.0        0.0        0.0
  21000      .021  325.544969 -675.32336 349.778392 325.544969 -675.32336 349.778392 407681.977  -89127.82 -318554.16        0.0
                          0.0        0.0 330.472665 -686.98181 356.509141 407680.557 -89123.572 -318556.98 1017.45447 -1043.4909
                   26.0364757 1000.86833 -1025.1018 24.2334229 496809.797 229426.337 -726236.13 .370196449 .030014102 -.40021055
                   .353463E-6 -.73735E-6  .38385E-6        0.0   147.0899   3.200332   2.460748   12.20434   9.383966    .262229
[...]
                         420.    .059928    .024499    .199218    .363147    .955974    .013807    .005716   2411.373   48.22745
                          0.0        0.0        0.0        0.0        0.0
 113000      .113  -267137.77 -171111.53 438249.305 -267137.77 -171111.53 438249.305 -267137.77 -171111.53 438249.305        0.0
                          0.0        0.0 -281886.69 -175265.59 457152.285 -251960.44 -174352.02 426312.457  -106621.1 -632417.88
                    739038.98 -96026.238 -609360.84 705387.077 -96026.237 -609360.84 705387.077 265.129173 -282.56846 17.4392842
                   -.24743E-3 -.19244E-3 .439942E-3        0.0   147.0899   3.200332   2.460748   12.20434   9.383966    .262229
                         420.    .059928    .024499    .199218    .363147    .955974    .013807    .005716   2411.373   48.22745
                          0.0        0.0        0.0        0.0        0.0
 113500     .1135  -170029.31 -238133.71 408163.027 -170029.31 -238133.71 408163.027 -170029.31 -238133.71 408163.027        0.0
                          0.0        0.0 -210594.88 -246888.05 457482.923 -194607.89 -233465.35  428073.24 36293.1702 -704370.97
                   668077.799 68104.3981 -646296.74 578192.342 68104.3994 -646296.74  578192.34 418.144406 -240.90651  -177.2379
                   -.16017E-3 -.25624E-3 .445426E-3        0.0   147.0899   3.200332   2.460748   12.20434   9.383966    .262229
                         420.    .059928    .024499    .199218    .363147    .955974    .013807    .005716   2411.373   48.22745
                          0.0        0.0        0.0        0.0        0.0
 114000      .114  -138321.76 -288076.81 426398.563 -138321.76 -288076.81 426398.563 -138321.75 -288076.81 426398.563        0.0
                          0.0        0.0 -75915.177 -298169.41 374084.585 -132463.44   -286830.  419293.44  222254.23 -672253.99
                   449999.762 149755.052 -714475.37 564720.319 149755.053 -714475.37 564720.318 393.142721 -193.03614 -200.10658
                   -.13922E-3 -.26917E-3 .437438E-3        0.0   147.0899   3.200332   2.460748   12.20434   9.383966    .262229
                         420.    .059928    .024499    .199218    .363147    .955974    .013807    .005716   2411.373   48.22745
                          0.0        0.0        0.0        0.0        0.0
 114500     .1145  -48684.189 -336032.71 384716.902 -48684.189 -336032.71 384716.902 -48684.189 -336032.71 384716.902        0.0
                          0.0        0.0 -27441.655 -340038.82 367480.478 -67057.308 -333131.94 400189.244 312597.168  -707519.3
                   394922.134 287348.524 -720749.61 433401.091 287348.524 -720749.62 433401.091  177.70074 -143.60991  -34.09083
                   -.48615E-4 -.35558E-3 .418603E-3        0.0   147.0899   3.200332   2.460748   12.20434   9.383966    .262229
                         420.    .059928    .024499    .199218    .363147    .955974    .013807    .005716   2411.373   48.22745
                          0.0        0.0        0.0        0.0        0.0
 115000      .115  -3738.6223  -372323.1 376061.722 -3738.6223  -372323.1 376061.722  -3738.622  -372323.1 376061.722        0.0
                          0.0        0.0 -6919.5102  -369841.9  376761.41 .127058E-4 -371231.06  371231.06 362922.389 -746603.31
                    383680.92 368584.477 -748384.82 379800.344 368584.478 -748384.82 379800.344 170.939783 -140.79694 -30.142845
                   -.38844E-5 -.40068E-3 .387818E-3        0.0   147.0899   3.200332   2.460748   12.20434   9.383966    .262229
                         420.    .059928    .024499    .199218    .363147    .955974    .013807    .005716   2411.373   48.22745
                          0.0        0.0        0.0        0.0        0.0
 115500     .1155  66113.8822 -405372.68 339258.794 66113.8822 -405372.68 339258.794 66113.8826 -405372.68 339258.793        0.0
                          0.0        0.0 26319.4237 -404735.36 378415.935 67057.3081 -400189.24 333131.936 431054.782 -783151.29
                   352096.511 471486.558 -744631.47 273144.912 471486.559 -744631.47 273144.911  212.92962    -124.17  -88.75962
                   .667289E-4 -.42448E-3 .342727E-3        0.0   147.0899   3.200332   2.460748   12.20434   9.383966    .262229
                         420.    .059928    .024499    .199218    .363147    .955974    .013807    .005716   2411.373   48.22745
                          0.0        0.0        0.0        0.0        0.0
 116000      .116   120481.91 -424730.69 304248.775  120481.91 -424730.69 304248.775 120481.911 -424730.69 304248.774        0.0
                          0.0        0.0 86991.4966 -433059.55 346068.052 132463.443 -419293.44 286829.997 520051.045  -779127.6
                   259076.555 545212.595 -728979.46 183766.865 545212.596 -728979.46 183766.863 453.020305 -80.647403  -372.3729
                   .128974E-3 -.46288E-3 .333458E-3        0.0   147.0899   3.200332   2.460748   12.20434   9.383966    .262229
                         420.    .059928    .024499    .199218    .363147    .955974    .013807    .005716   2411.373   48.22745
                          0.0        0.0        0.0        0.0        0.0
 116500     .1165   187485.16 -432432.93 244947.774  187485.16 -432432.93 244947.774  187485.16 -432432.93 244947.774        0.0
                          0.0        0.0 209194.474 -446460.58 237266.108 194607.888 -428073.24 233465.353 655655.055 -683726.69
                   28071.6343 619918.094 -677380.71 57462.6145 619918.095 -677380.71 57462.6131 362.319059 -10.697286 -351.62177
                   .186247E-3 -.48252E-3 .266895E-3        0.0   147.0899   3.200332   2.460748   12.20434   9.383966    .262229
                         420.    .059928    .024499    .199218    .363147    .955974    .013807    .005716   2411.373   48.22745
                          0.0        0.0        0.0        0.0        0.0
 117000      .117  262650.441  -430207.4 167556.957 262650.441  -430207.4 167556.957 262650.442  -430207.4 167556.956        0.0
                          0.0        0.0 297021.613 -439627.83 142606.214 251960.441 -426312.46 174352.016  736649.44 -582234.04
                    -154415.4 692857.839 -597764.36 -95093.484  692857.84 -597764.35 -95093.485 246.239667 54.7840373  -301.0237
                   .240862E-3 -.43584E-3 .165716E-3        0.0   147.0899   3.200332   2.460748   12.20434   9.383966    .262229
                         420.    .059928    .024499    .199218    .363147    .955974    .013807    .005716   2411.373   48.22745
                          0.0        0.0        0.0        0.0        0.0
 117500     .1175  294343.699 -414584.75 120241.047 294343.699 -414584.75 120241.047 294343.699 -414584.75 120241.047        0.0
                          0.0        0.0 339343.765  -419514.8 80171.0368 303108.891 -414054.45 110945.554 758858.567 -499685.84
                   -259172.73 708928.445 -534825.79 -174102.65 708928.445 -534825.79 -174102.65 54.5790129 83.8036934 -138.38271
                   .333525E-3 -.45884E-3 .125177E-3        0.0   147.0899   3.200332   2.460748   12.20434   9.383966    .262229
                         420.    .059928    .024499    .199218    .363147    .955974    .013807    .005716   2411.373   48.22745
                          0.0        0.0        0.0        0.0        0.0
 118000      .118  343437.051 -391684.94 48247.8926 343437.051 -391684.94 48247.8926 343437.051 -391684.94 48247.8923        0.0
                          0.0        0.0 299944.128 -391891.58 91947.4516 346793.795 -391601.04 44807.2447 691835.708 -483839.03
                   -207996.68 735121.995 -439932.84 -295189.16 735121.995 -439932.84 -295189.16 24.1134091 107.479817 -131.59323
                   .369774E-3 -.42398E-3 .469536E-4        0.0   147.0899   3.200332   2.460748   12.20434   9.383966    .262229
                         420.    .059928    .024499    .199218    .363147    .955974    .013807    .005716   2411.373   48.22745
                          0.0        0.0        0.0        0.0        0.0
 118500     .1185  352356.368 -362253.77 9897.39783 352356.368 -362253.77 9897.39783 352356.368 -362253.77 9897.39726        0.0
                          0.0        0.0 340561.497 -364521.24  23959.741 381939.485 -359505.12 -22434.368 705082.734 -388480.98
                   -316601.76 714610.133 -372151.16 -342458.97 714610.133 -372151.16 -342458.97 162.832677 124.357136 -287.18981
                   .366765E-3 -.38651E-3 .107782E-4        0.0   147.0899   3.200332   2.460748   12.20434   9.383966    .262229
                         420.    .059928    .024499    .199218    .363147    .955974    .013807    .005716   2411.373   48.22745
                          0.0        0.0        0.0        0.0        0.0
 119000      .119  423886.398 -326210.97 -97675.423 423886.398 -326210.97 -97675.423 423886.398 -326210.97 -97675.424        0.0
                          0.0        0.0 395219.294 -333372.37 -61846.929 407680.557 -318556.98 -89123.572  728591.66 -271525.44
                   -457066.22 750097.373 -228535.55 -521561.82 750097.373 -228535.55 -521561.82 190.788279 176.337199 -367.12548
                   .438839E-3 -.35806E-3 -.95099E-4        0.0   147.0899   3.200332   2.460748   12.20434   9.383966    .262229
                         420.    .059928    .024499    .199218    .363147    .955974    .013807    .005716   2411.373   48.22745
                          0.0        0.0        0.0        0.0        0.0
 119500     .1195  434227.343 -274136.91 -160090.43 434227.343 -274136.91 -160090.43 434227.344 -274136.91 -160090.43        0.0
                          0.0        0.0 490525.405 -287237.39 -203288.01  423383.18 -269764.92 -153618.26 777762.798 -83949.382
                   -693813.42 708364.256 -114046.48 -594317.77 708364.256 -114046.48 -594317.78 130.240941  231.84512 -362.08606
                   .453209E-3 -.28308E-3 -.16981E-3        0.0   147.0899   3.200332   2.460748   12.20434   9.383966    .262229
                         420.    .059928    .024499    .199218    .363147    .955974    .013807    .005716   2411.373   48.22745
                          0.0        0.0        0.0        0.0        0.0
  % % % % % %   Suspended simulation;  plot data space exhausted;  SPY SPACE is required.   LIMBUF =  840000.
  % % % % % %   Suspended simulation;  plot data space exhausted;  SPY SPACE is required.   LIMBUF =  840000.
  +++  Time-sharing disabled.   Send  user-keyed interrupt to silence alarm.
   Current values.  INDBUF  INDBEG  LIMBUF  MFLUSH  NUMDCD  KCARD1  KCARD2
                    839994      50  840000    1007     230       1     231
Plot timespan now in memory (in sec) = 1.04985997E-01   1.19985000E-01
   ++++  Begin plot-data copy from memory to disk.   MFLUSH, INDBUF, N4, Tbeg,  Tend = 1008  839994       1  -1.00000E+00
1.00000E+19
 120000       .12  442575.034 -218147.27 -224427.76 442575.034 -218147.27 -224427.76 442575.034 -218147.27 -224427.76        0.0
                          0.0        0.0  487633.69 -220849.42 -266784.27 428660.705 -214330.35 -214330.35 708483.113 45934.8421
                   -754417.96 660722.305 6280.49405  -667002.8 660722.304 6280.49487  -667002.8 -121.95638 265.275762 -143.31938
                    .48337E-3 -.23509E-3 -.24773E-3        0.0   147.0899   3.200332   2.460748   12.20434   9.383966    .262229
                         420.    .059928    .024499    .199218    .363147    .955974    .013807    .005716   2411.373   48.22745
                          0.0        0.0        0.0        0.0        0.0

Extrema of output variables follow.   Order and column positioning are the same as for the preceding time-step loop output.
Variable maxima :  465368.219 436541.755 468892.864 465368.219 436541.755 468892.864 529673.074 442277.731 468892.865        0.0
                          0.0        0.0 528497.181 452425.054 545708.383 428660.705 428660.703 428660.703  890353.97 840874.877
                   .1034168E7 799218.184 774428.777 844899.411 799218.184 774428.777 844899.412 684.834815 335.720722 637.592571
                    .52259E-3 .492084E-3 .525713E-3        0.0   147.0899   3.200332   2.460748   12.20434   9.383966    .262229
                         420.    .059928    .024499    .199218    .363147    .955974    .013807    .005716   2411.373   48.22745
                          0.0        0.0        0.0        0.0        0.0
Times of maxima :     .081145    .087049    .074072    .081145    .087049    .074072    .061147    .067043    .074072        0.0
                          0.0        0.0    .081322    .106825    .093708        0.0    .006667    .113333    .078559    .084274
                      .071868    .078218    .084482     .07141    .078218    .084482     .07141    .075256    .081289    .068604
                      .081144    .106633    .093152        0.0        0.0        0.0        0.0        0.0        0.0        0.0
                          0.0        0.0        0.0        0.0        0.0        0.0        0.0        0.0        0.0        0.0
                          0.0        0.0        0.0        0.0        0.0
Variable minima :  -472538.29 -438187.89 -470963.19 -472538.29 -438187.89 -470963.19 -472538.29 -438187.89 -470963.19        0.0
                          0.0        0.0 -557900.22  -453161.7 -542157.07 -428660.71  -428660.7  -428660.7 -899564.86 -889122.17
                   -.100952E7 -819097.64 -779359.18 -848607.62 -819097.64 -779359.18 -919256.43 -624.46608  -348.9453 -678.27361
                   -.52449E-3 -.49483E-3 -.52714E-3        0.0   147.0899   3.200332   2.460748   12.20434   9.383966    .262229
                         420.    .059928    .024499    .199218    .363147    .955974    .013807    .005716   2411.373   48.22745
                          0.0        0.0        0.0        0.0        0.0
Times of minima :     .090567    .076458    .103511    .090567    .076458    .103511    .090567    .076458    .103511        0.0
                          0.0        0.0    .069245    .097056    .083934        .01    .016667    .103333      .0688    .074585
                      .081335      .0687    .075059    .081146      .0687    .075059    .061149    .084624     .07175    .077931
                      .068737    .076457    .083736        0.0        0.0        0.0        0.0        0.0        0.0        0.0
                          0.0        0.0        0.0        0.0        0.0        0.0        0.0        0.0        0.0        0.0
                          0.0        0.0        0.0        0.0        0.0

Blank card terminating all plot cards.            |BLANK PLOT

Memory storage figures for the preceding, now-completed data case.  -------------------------------  Present   Program
A value of  "-9999"  indicates that no figure is available.         28-Feb-22  19:04:37              figure     limit  (name)
     Size List 1.   Number of electric network nodes.                                                   37      6000  (LBUS)
     Size List 2.   Number of electric network branches.                                                39     10000  (LBRNCH)
     Size List 3.   Number of data values in R, L, C tables.                                            45    192000  (LDATA)
     Size List 4.   Number of electric network sources.                                                  3       900  (LEXCT)
     Size List 5.   Storage for [Y] and triangularized [Y].   No. times =    3     Factors =    66     189    420000  (LYMAT)
     Size List 6.   Number of entries in switch table.                  No. flops = 18                  21      1200  (LSWTCH)
     Size List 7.   Number of distinct ALPHANUMERIC data names plus program SPY variables.              25     15000  (LSIZE7)
     Size List 8.   History points of distributed lines.                                              1793    120000  (LPAST)
     Size List 9.   Number of nonlinear elements.                                                        0      2250  (LNONL)
     Size List 10.  Points of nonlinear characteristics.                                                 0      3800  (LCHAR)
     Size List 11.  Number of Type-59 S.M. outputs.                                                      0       720  (LSMOUT)
     Size List 12.  Total number of EMTP output variables.                                              55      2000  (LSIZ12)
     Size List 13.  Working space for batch/SPY plotting.                                            -9999     72800  (LSIZ13)
     Size List 14.  S.M./U.M. connections to TACS.                                                   -9999       510  (LBSTAC)
     Size List 15.  Character storage in bytes for MODELS.                                            3300     90000  (LCTACS)
     Size List 16.  Total number of Type-59 S.M. masses.                                                 0       800  (LIMASS)
     Size List 17.  Number of Type-59 Synchronous machines.                                              0        90  (LSYN)
     Size List 18.  Branch and switch power/energy outputs.                                              0       254  (MAXPE)
     Size List 19.  Total floating-point TACS table space.                                              23    120000  (LTACST)
     Size List 20.  Non-copied recursive convolution data.                                               0    100000  (LFSEM)
     Size List 21.  Total modal/phase [T] matrix storage.                                                9      3000  (LFD)
     Size List 22.  Total recursive convolution history.                                                 0     15000  (LHIST)
     Size List 23.  Giant vectors for renumbering, phasors;  also extrema accumulation.                  93    192000  (LSIZ23)
     Size List 24.  Peak phases of compensation for data.                                                0       120  (LCOMP)
     Size List 25.  Total table space for all U.M usage.                                             -9999     45000  (LSPCUM)
     Size List 26.  Square of max number of coupled phases.                                              9    260000  (LSIZ26)
     Size List 27.  Maximum number of MODELS top variables.                                             44       600  (LSIZ27)
     Size List 28.  MODELS.  Total work space is divided into INTEGER and REAL.  1st, REAL:           1780    210000  (LRTACS)
                             Second  and last,  statistics for INTEGER work space.                    6838         0  (LITACS)
     Size List 29.  RAM disk used by "TAPSAV" table saving (limit is "LABCOM" size LTLABL).          -9999       600  (LSIZ29)
     Size List 30.  Taku Noda frequency-dependent circuits.                                              0        19  (LSIZ30)
Timing figures characterizing central processor (CP) solution speed.  ----------------------------   CP sec  Wait sec  Real sec
     Data input time (through blank card ending branches) ....                                       0.063     0.000     0.063
     Node renumbering and phasor solution  ....                                                      0.000     0.000     0.000
     After phasor solution, but before time-step loop  ....                                          0.000     0.000     0.000
     Integration of equations (time-step loop)  ....                                                 1.078     0.000     1.078
     Plotting or STATISTICS termination overlays ....                                                0.000     0.000     0.000
                                                                                                    ---------------------------
                                                                                          Totals      1.141     0.000     1.141

