   ---   236   cards of disk file read into card cache cells  1   onward.
 Comment card is ignored.      |C   LBUS  LBRNCH   LDATA   LEXCT   LYMAT  LSWTCH
 Limit CIDEAL cards =   200    |CARDS        200 { Limit of CIDEAL will be 2 mor
 1st card (Lists  1-10).       |    6000   10000  192000     900  420000    120
 Comment card is ignored.      |C LSMOUT  LSIZ12  LSIZ13  LBSTAC  LCTACS  LIMASS
 2nd card (Lists 11-20).       |     720    2000   72800     510   90000     80
 Comment card is ignored.      |C    LFD   LHIST  LSIZ23   NCOMP  LSPCUM  LSIZ26
 3rd card (Lists 21-30).       |    3000   15000  192000     120   45000  26000
 4th card (Lists 31-32).       |     200     300     { Optional card for Lists
 Comment card is ignored.      |C  LWORK  LMARTI
 Supplemental offsets.         |  840000     742
 <===> Done with  "/"-card sorting by data class.    Remember that the source file appears different from interpreted input data.
Alternative Transients Program (ATP),  GNU Linux or DOS.  All rights reserved by Can/Am user group of Portland, Oregon, USA.
 Date (dd-mth-yy) and time of day (hh.mm.ss) = 28-Feb-22  19:35:08   Name of disk plot file is  draw6.3\bernal\energizacion2277.pl4
Consult the 860-page ATP Rule Book of the Can/Am EMTP User Group in Portland,  Oregon, USA.  Source code date is 12 August 2008.
Total size of LABCOM tables = 10913436 INTEGER words.  31 VARDIM  List Sizes follow:  6002  10K  192K  900  420K  1200  15K
  120K  2250  3800  720  2K  72800  510  90K  800  90  254  120K  100K  3K  15K  192K  120  45K  260K  600  210K  1100  60  200
--------------------------------------------------+--------------------------------------------------------------------------------
Descriptive interpretation of input data cards.   |  Input data card images are shown below, all 80 columns, character by character
                                                  0         1         2         3         4         5         6         7         8
                                                  012345678901234567890123456789012345678901234567890123456789012345678901234567890
--------------------------------------------------+--------------------------------------------------------------------------------
Comment card.   NUMDCD = 1.                       |C data:C:\ATP\ATPDRAW6.3\BERNAL\ENERGIZACION2277.ATP
Marker card preceding new EMTP data case.         |BEGIN NEW DATA CASE
Comment card.   NUMDCD = 3.                       |C --------------------------------------------------------
Comment card.   NUMDCD = 4.                       |C Generated by ATPDRAW  febrero, lunes 28, 2022
Comment card.   NUMDCD = 5.                       |C A Bonneville Power Administration program
Comment card.   NUMDCD = 6.                       |C by H. K. Høidalen at SEfAS/NTNU - NORWAY 1994-2016
Comment card.   NUMDCD = 7.                       |C --------------------------------------------------------
Comment card.   NUMDCD = 8.                       |C  dT  >< Tmax >< Xopt >< Copt ><Epsiln>
Misc. data.     1.000E-06   1.200E-01   5.000E+01 |   1.E-6     .12     50.
Misc. data.    500    1  0  1  1  0  0  0  0  0   |     500       1       0       1       1       0       0       0       0
  ///  Warning.  Nonzero XOPT or COPT differs from the power frequency of  6.00000000E+01  Hz.   Did the user really want this?
No TACS data,  but MODELS data begins (next).     |MODELS
      Another ordinary MODELS data card.          |OUTPUT
      Another ordinary MODELS data card.          |  AnVol
      Another ordinary MODELS data card.          |  LONG
      Another ordinary MODELS data card.          |  R0F
      Another ordinary MODELS data card.          |  R1F
      Another ordinary MODELS data card.          |  X0F
      Another ordinary MODELS data card.          |  X1F
      Another ordinary MODELS data card.          |  RDIVX
      Another ordinary MODELS data card.          |  RINSER
      Another ordinary MODELS data card.          |  CLOSE1
      Another ordinary MODELS data card.          |  RPpos
      Another ordinary MODELS data card.          |  RPcero
      Another ordinary MODELS data card.          |  LPpos
      Another ordinary MODELS data card.          |  LPcero
      Another ordinary MODELS data card.          |  CPpos
      Another ordinary MODELS data card.          |  CPcero
      Another ordinary MODELS data card.          |  Xp
      Another ordinary MODELS data card.          |  CR
      Another ordinary MODELS data card.          |  SIMET
      Another ordinary MODELS data card.          |  ENC1
      Another ordinary MODELS data card.          |  ENC2
      Another ordinary MODELS data card.          |  ENC1AS
      Another ordinary MODELS data card.          |  ENC2AS
      Another ordinary MODELS data card.          |MODEL DEFAULT
      Another ordinary MODELS data card.          |DATA AnVol,LONG,R0F,R1F,X0F,X1F,RDIVX,RINSER,CLOSE1,RPpos,RPcero,LPpos,LPcero
      Another ordinary MODELS data card.          |OUTPUT o1,o2,o3, o4, o5, o6, o7, o8, o9, o10, o11, o12, o13
      Another ordinary MODELS data card.          |VAR o1,o2,o3, o4, o5, o6, o7, o8, o9, o10, o11, o12, o13
      Another ordinary MODELS data card.          |INIT
      Another ordinary MODELS data card.          |  o1:=AnVol
      Another ordinary MODELS data card.          |  o2:=LONG
      Another ordinary MODELS data card.          |  o3:=R0F
      Another ordinary MODELS data card.          |  o4:=R1F
      Another ordinary MODELS data card.          |  o5:=X0F
      Another ordinary MODELS data card.          |  O6:=X1F
      Another ordinary MODELS data card.          |  o7:=RDIVX
      Another ordinary MODELS data card.          |  o8:=RINSER
      Another ordinary MODELS data card.          |  o9:=CLOSE1
      Another ordinary MODELS data card.          |  o10:=RPpos
      Another ordinary MODELS data card.          |  o11:=RPcero
      Another ordinary MODELS data card.          |  o12:=LPpos
      Another ordinary MODELS data card.          |  o13:=LPcero
      Another ordinary MODELS data card.          |
      Another ordinary MODELS data card.          |ENDINIT
      Another ordinary MODELS data card.          |EXEC
      Another ordinary MODELS data card.          |ENDEXEC
      Another ordinary MODELS data card.          |ENDMODEL
      Another ordinary MODELS data card.          |MODEL DEFAULT1
      Another ordinary MODELS data card.          |DATA CPpos,CPcero,Xp,CR,SIMET,ENC1,ENC2,ENC1AS,ENC2AS
      Another ordinary MODELS data card.          |OUTPUT o1, o2, o3, o4, o5, o6, o7, o8, o9
      Another ordinary MODELS data card.          |VAR o1, o2, o3, o4, o5, o6, o7, o8, o9
      Another ordinary MODELS data card.          |INIT
      Another ordinary MODELS data card.          |  o1:=CPpos
      Another ordinary MODELS data card.          |  o2:=CPcero
      Another ordinary MODELS data card.          |  o3:=Xp
      Another ordinary MODELS data card.          |  o4:=CR
      Another ordinary MODELS data card.          |  o5:=SIMET
      Another ordinary MODELS data card.          |  o6:=ENC1
      Another ordinary MODELS data card.          |  o7:=ENC2
      Another ordinary MODELS data card.          |  o8:=ENC1AS
      Another ordinary MODELS data card.          |  o9:=ENC2AS
      Another ordinary MODELS data card.          |
      Another ordinary MODELS data card.          |ENDINIT
      Another ordinary MODELS data card.          |EXEC
      Another ordinary MODELS data card.          |ENDEXEC
      Another ordinary MODELS data card.          |ENDMODEL
      Another ordinary MODELS data card.          |USE DEFAULT AS DEFAULT
      Another ordinary MODELS data card.          |DATA
      Another ordinary MODELS data card.          |  AnVol:=      0.0
      Another ordinary MODELS data card.          |  LONG:=  102.605
      Another ordinary MODELS data card.          |  R0F:= 2.168176
      Another ordinary MODELS data card.          |  R1F:= 2.092863
      Another ordinary MODELS data card.          |  X0F:= 8.057142
      Another ordinary MODELS data card.          |  X1F:= 7.777271
      Another ordinary MODELS data card.          |  RDIVX:=   0.2691
      Another ordinary MODELS data card.          |  RINSER:=     440.
      Another ordinary MODELS data card.          |  CLOSE1:= 0.058521
      Another ordinary MODELS data card.          |  RPpos:= 0.018455
      Another ordinary MODELS data card.          |  RPcero:= 0.347536
      Another ordinary MODELS data card.          |  LPpos:= 0.338204
      Another ordinary MODELS data card.          |  LPcero:= 0.879287
      Another ordinary MODELS data card.          |OUTPUT
      Another ordinary MODELS data card.          |  AnVol:=o1
      Another ordinary MODELS data card.          |  LONG:=o2
      Another ordinary MODELS data card.          |  R0F:=o3
      Another ordinary MODELS data card.          |  R1F:=o4
      Another ordinary MODELS data card.          |  X0F:=o5
      Another ordinary MODELS data card.          |  X1F:=o6
      Another ordinary MODELS data card.          |  RDIVX:=o7
      Another ordinary MODELS data card.          |  RINSER:=o8
      Another ordinary MODELS data card.          |  CLOSE1:=o9
      Another ordinary MODELS data card.          |  RPpos:=o10
      Another ordinary MODELS data card.          |  RPcero:=o11
      Another ordinary MODELS data card.          |  LPpos:=o12
      Another ordinary MODELS data card.          |  LPcero:=o13
      Another ordinary MODELS data card.          |ENDUSE
      Another ordinary MODELS data card.          |USE DEFAULT1 AS DEF
      Another ordinary MODELS data card.          |DATA
      Another ordinary MODELS data card.          |  CPpos:= 0.013027
      Another ordinary MODELS data card.          |  CPcero:= 0.009708
      Another ordinary MODELS data card.          |  Xp:= 3663.635
      Another ordinary MODELS data card.          |  CR:= 73.27271
      Another ordinary MODELS data card.          |  SIMET:=      0.0
      Another ordinary MODELS data card.          |  ENC1:=      0.0
      Another ordinary MODELS data card.          |  ENC2:=      0.0
      Another ordinary MODELS data card.          |  ENC1AS:=      0.0
      Another ordinary MODELS data card.          |  ENC2AS:=      0.0
      Another ordinary MODELS data card.          |OUTPUT
      Another ordinary MODELS data card.          |  CPpos:=o1
      Another ordinary MODELS data card.          |  CPcero:=o2
      Another ordinary MODELS data card.          |  Xp:=o3
      Another ordinary MODELS data card.          |  CR:=o4
      Another ordinary MODELS data card.          |  SIMET:=o5
      Another ordinary MODELS data card.          |  ENC1:=o6
      Another ordinary MODELS data card.          |  ENC2:=o7
      Another ordinary MODELS data card.          |  ENC1AS:=o8
      Another ordinary MODELS data card.          |  ENC2AS:=o9
      Another ordinary MODELS data card.          |ENDUSE
      Another ordinary MODELS data card.          |RECORD
      Another ordinary MODELS data card.          |  DEFAULT.o1 AS AnVOL
      Another ordinary MODELS data card.          |  DEFAULT.o2 AS LONG
      Another ordinary MODELS data card.          |  DEFAULT.o3 AS R0F
      Another ordinary MODELS data card.          |  DEFAULT.o4 AS R1F
      Another ordinary MODELS data card.          |  DEFAULT.o5 AS X0F
      Another ordinary MODELS data card.          |  DEFAULT.o6 AS X1F
      Another ordinary MODELS data card.          |  DEFAULT.o7 AS RDIVX
      Another ordinary MODELS data card.          |  DEFAULT.o8 AS RINSER
      Another ordinary MODELS data card.          |  DEFAULT.o9 AS CLOSE1
      Another ordinary MODELS data card.          |  DEFAULT.o10 AS RPpos
      Another ordinary MODELS data card.          |  DEFAULT.o11 AS RPcero
      Another ordinary MODELS data card.          |  DEFAULT.o12 AS LPpos
      Another ordinary MODELS data card.          |  DEFAULT.o13 AS LPcero
      Another ordinary MODELS data card.          |  DEF.o1 AS CPpos
      Another ordinary MODELS data card.          |  DEF.o2 AS CPcero
      Another ordinary MODELS data card.          |  DEF.o3 AS Xp
      Another ordinary MODELS data card.          |  DEF.o4 AS CR
      Another ordinary MODELS data card.          |  DEF.o5 AS SIMET
      Another ordinary MODELS data card.          |  DEF.o6 AS ENC1
      Another ordinary MODELS data card.          |  DEF.o7 AS ENC2
      Another ordinary MODELS data card.          |  DEF.o8 AS ENC1AS
      Another ordinary MODELS data card.          |  DEF.o9 AS ENC2AS
Termination of data for Laurent Dube`s MODELS.    |ENDMODELS
Comment card.   NUMDCD = 153.                     |C        1         2         3         4         5         6         7         8
Comment card.   NUMDCD = 154.                     |C 345678901234567890123456789012345678901234567890123456789012345678901234567890
Optional blank card follows last of MODELS data.  |BLANK MODELS
Comment card.   NUMDCD = 156.                     |C < n1 >< n2 ><ref1><ref2>< R  >< L  >< C  >
Comment card.   NUMDCD = 157.                     |C < n1 >< n2 ><ref1><ref2>< R  >< A  >< B  ><Leng><><>0
1st of coupled R-L.   2.16820E+00  2.56467E-02    |51IFUENASB1A              2.16828.0571421684
2nd coil. 2.093E+00 2.476E-02 0.000E+00 0.000E+00 |52IFUENBSB1B              2.09297.7772710494
Zca, Zcc= 2.510E-02 2.970E-04 2.118E+00 2.505E-02 |53IFUENCSB1C
Series R-L-C.   1.000E+09  0.000E+00  0.000E+00   |  SB1A                      1.E9                                               0
Series R-L-C.   1.000E+09  0.000E+00  0.000E+00   |  SB1B                      1.E9                                               0
Series R-L-C.   1.000E+09  0.000E+00  0.000E+00   |  SB1C                      1.E9                                               0
Series R-L-C.   1.000E+09  0.000E+00  0.000E+00   |  RSNSHA                    1.E9                                               0
Series R-L-C.   1.000E+09  0.000E+00  0.000E+00   |  RSNSHB                    1.E9                                               0
Series R-L-C.   1.000E+09  0.000E+00  0.000E+00   |  RSNSHC                    1.E9                                               0
Series R-L-C.   1.000E+09  0.000E+00  0.000E+00   |  RSNNHA                    1.E9                                               0
Series R-L-C.   1.000E+09  0.000E+00  0.000E+00   |  RSNNHB                    1.E9                                               0
Series R-L-C.   1.000E+09  0.000E+00  0.000E+00   |  RSNNHC                    1.E9                                               0
Series R-L-C.   1.000E+09  0.000E+00  0.000E+00   |  SE2A                      1.E9                                               0
Series R-L-C.   1.000E+09  0.000E+00  0.000E+00   |  SE2B                      1.E9                                               0
Series R-L-C.   1.000E+09  0.000E+00  0.000E+00   |  SE2C                      1.E9                                               0
Series R-L-C.   2.500E+02  0.000E+00  3.000E-10   |  X0001B                    250.       .0003                                   0
Series R-L-C.   2.500E+02  0.000E+00  3.000E-10   |  X0002B                    250.       .0003                                   0
Series R-L-C.   1.000E-06  0.000E+00  0.000E+00   |  X0001ALN1A               1.E-6                                               0
Series R-L-C.   1.000E-06  0.000E+00  0.000E+00   |  SB1A  X0002A             1.E-6                                               0
Series R-L-C.   1.000E-06  0.000E+00  0.000E+00   |  X0001BLN1B               1.E-6                                               0
Series R-L-C.   1.000E-06  0.000E+00  0.000E+00   |  SB1B  X0002B             1.E-6                                               0
Series R-L-C.   1.000E-06  0.000E+00  0.000E+00   |  X0001CLN1C               1.E-6                                               0
Series R-L-C.   1.000E-06  0.000E+00  0.000E+00   |  SB1C  X0002C             1.E-6                                               0
Series R-L-C.   4.400E+02  0.000E+00  0.000E+00   |  XX0005X0002A              440.                                               0
Series R-L-C.   4.400E+02  0.000E+00  0.000E+00   |  XX0003X0002B              440.                                               0
Series R-L-C.   4.400E+02  0.000E+00  0.000E+00   |  XX0004X0002C              440.                                               0
Series R-L-C.   2.500E+02  0.000E+00  3.000E-10   |  X0001A                    250.       .0003                                   0
Series R-L-C.   1.000E+06  0.000E+00  0.000E+00   |  X0001AX0002A              1.E6                                               0
Series R-L-C.   1.000E+06  0.000E+00  0.000E+00   |  X0001BX0002B              1.E6                                               0
Series R-L-C.   1.000E+06  0.000E+00  0.000E+00   |  X0001CX0002C              1.E6                                               0
Series R-L-C.   2.500E+02  0.000E+00  3.000E-10   |  X0002C                    250.       .0003                                   0
Series R-L-C.   2.500E+02  0.000E+00  3.000E-10   |  X0002A                    250.       .0003                                   0
Series R-L-C.   2.500E+02  0.000E+00  3.000E-10   |  X0001C                    250.       .0003                                   0
Series R-L-C.   1.250E+02  0.000E+00  6.000E-10   |  X0001AX0002A              125.       .0006                                   0
Series R-L-C.   1.250E+02  0.000E+00  6.000E-10   |  X0001BX0002B              125.       .0006                                   0
Series R-L-C.   1.250E+02  0.000E+00  6.000E-10   |  X0001CX0002C              125.       .0006                                   0
 3.475E-01 8.793E-01 9.710E-03 5.369E+02 5.349E-04|-1LN1A  VFF2A             .34754.87929.00971102.61 0 0                         0
 1.845E-02 3.382E-01 1.303E-02 2.874E+02 3.843E-04|-2LN1B  VFF2B             .01845 .3382.01303102.61 0 0                         0
3rd or later transposed distributed phase.        |-3LN1C  VFF2C                                                                  0
Blank card ending branches.  IBR, NTOT = 39  31   |BLANK BRANCH
Comment card.   NUMDCD = 198.                     |C < n 1>< n 2>< Tclose ><Top/Tde ><   Ie   ><Vf/CLOP ><  type  >
Switch.  -1.00E+00  1.00E+01  0.00E+00  0.00E+00  |  LN1A  COMPA        -1.       10.                                             0
Switch.  -1.00E+00  1.00E+01  0.00E+00  0.00E+00  |  LN1B  COMPB        -1.       10.                                             0
Switch.  -1.00E+00  1.00E+01  0.00E+00  0.00E+00  |  LN1C  COMPC        -1.       10.                                             0
Switch.  -1.00E+00  1.00E+01  0.00E+00  0.00E+00  |  VFF2A RSNNHA       -1.       10.                                             0
Switch.  -1.00E+00  1.00E+01  0.00E+00  0.00E+00  |  VFF2B RSNNHB       -1.       10.                                             0
Switch.  -1.00E+00  1.00E+01  0.00E+00  0.00E+00  |  VFF2C RSNNHC       -1.       10.                                             0
Switch.   2.00E+00 -1.00E+00  0.00E+00  0.00E+00  |  VFF2A SE2A          2.       -1.                                             0
Switch.   2.00E+00 -1.00E+00  0.00E+00  0.00E+00  |  VFF2B SE2B          2.       -1.                                             0
Switch.   2.00E+00 -1.00E+00  0.00E+00  0.00E+00  |  VFF2C SE2C          2.       -1.                                             0
Switch.   5.85E-02  1.00E+03  0.00E+00  0.00E+00  |  X0001BXX0003.058520723      1.E3                                             0
Switch.   5.85E-02  1.00E+03  0.00E+00  0.00E+00  |  X0001CXX0004.058520723      1.E3                                             0
Switch.   6.60E-02  1.00E+03  0.00E+00  0.00E+00  |  XX0005X0002A.066020723      1.E3                                             0
Switch.   6.60E-02  1.00E+03  0.00E+00  0.00E+00  |  XX0003X0002B.066020723      1.E3                                             0
Switch.   6.60E-02  1.00E+03  0.00E+00  0.00E+00  |  XX0004X0002C.066020723      1.E3                                             0
Switch.   5.85E-02  1.00E+03  0.00E+00  0.00E+00  |  X0001AXX0005.058520723      1.E3                                             0
Permanently-closed switch used for metering.      |  VFUENAIFUENA                                        MEASURING                1
Permanently-closed switch used for metering.      |  VFUENBIFUENB                                        MEASURING                1
Permanently-closed switch used for metering.      |  VFUENCIFUENC                                        MEASURING                1
Permanently-closed switch used for metering.      |  COMPA RSNSHA                                        MEASURING                1
Permanently-closed switch used for metering.      |  COMPB RSNSHB                                        MEASURING                1
Permanently-closed switch used for metering.      |  COMPC RSNSHC                                        MEASURING                1
Blank card ending switches.   KSWTCH = 21.        |BLANK SWITCH
Comment card.   NUMDCD = 221.                     |C < n 1><>< Ampl.  >< Freq.  ><Phase/T0><   A1   ><   T1   >< TSTART >< TSTOP  >
Source.   4.29E+05  5.00E+01  0.00E+00 -1.00E+00  |14VFUENA  428660.705       50.                                     -1.      100.
Source.   4.29E+05  5.00E+01 -1.20E+02 -1.00E+00  |14VFUENB  428660.705       50.     -120.                           -1.      100.
Source.   4.29E+05  5.00E+01 -2.40E+02 -1.00E+00  |14VFUENC  428660.705       50.     -240.                           -1.      100.
Blank card ends electric sources.  KCONST = 3     |BLANK SOURCE
Pi-equivalent branches of distributed circuits are added to the table of List Size 3 between indices  40   and  45.

Sinusoidal steady-state phasor solution, branch by branch.   All flows are away from a bus,  and the real part,  magnitude,  or  "P"
is printed above the imaginary part,  the angle,  or  "Q".   The first solution frequency  =  5.00000000E+01  Hertz.
  Bus K                        Phasor  node  voltage              Phasor  branch  current               Power flow       Power loss
             Bus M         Rectangular            Polar          Rectangular            Polar            P  and  Q        P  and  Q

 IFUENA                    428660.705       428660.705      .42870047458246  .44576998141734      91883.523834175  .20794099653867
                                  0.0              0.0       .1221751997158       15.9070037      -26185.85362185        0.7727142

            SB1A      428660.75796242  428660.75797745      -.4287004745825  .44576998141734      -91883.31589318
                       -3.58982026532       -0.0004798      -.1221751997158     -164.0929963      26186.626336018

 IFUENB                  -214330.3525       428660.705      -.1085434106211  .44576998141694      91883.523833867  .20794099653788
                      -371231.0601341     -120.0000000      -.4323531014613     -104.0929963      -26185.85362261        0.7727142

            SB1B      -214333.4878568  428660.75797745       .1085434106211  .44576998141694      -91883.31589287
                      -371229.3110908     -120.0004798      .43235310146129       75.9070037      26186.626336784

 IFUENC                  -214330.3525       428660.705       -.320157063951  .44576998140991      91883.523832748  .20794099653158
                      371231.06013415      120.0000000      .31017790174106      135.9070037      -26185.85362104        0.7727142

            SB1C      -214327.2701057  428660.75797745      .32015706395097  .44576998140991      -91883.31589175
                      371232.90091108      119.9995202      -.3101779017411      -44.0929963      26186.626335213

 SB1A                 428660.75796242  428660.75797745      .42866075796E-3  .42866075798E-3      91.875022714902  91.875022714902
                       -3.58982026532       -0.0004798      -.3589820265E-8       -0.0004798        .12970192E-19        0.0000000

            TERRA                 0.0              0.0       -.428660758E-3  .42866075798E-3                  0.0
                                  0.0              0.0      .35898202653E-8      179.9995202                  0.0

 SB1B                 -214333.4878568  428660.75797745      -.2143334879E-3  .42866075798E-3      91.875022714902  91.875022714902
                      -371229.3110908     -120.0004798      -.3712293111E-3     -120.0004798      .3354955203E-14        0.0000000

            TERRA                 0.0              0.0      .21433348786E-3  .42866075798E-3                  0.0
                                  0.0              0.0      .37122931109E-3       59.9995202                  0.0

 SB1C                 -214327.2701057  428660.75797745      -.2143272701E-3  .42866075798E-3      91.875022714902  91.875022714902
                      371232.90091108      119.9995202      .37123290091E-3      119.9995202      .4128641873E-15        0.0000000

            TERRA                 0.0              0.0      .21432727011E-3  .42866075798E-3                  0.0
                                  0.0              0.0      -.3712329009E-3      -60.0004798                  0.0

 RSNSHA               194.00552994947  1032.7695044869      .19400552995E-6  .10327695045E-5       .5333064247E-3   .5333064247E-3
                      -1014.383903533      -79.1726733      -.1014383904E-5      -79.1726733      -.219037426E-20        0.0000000

            TERRA                 0.0              0.0      -.1940055299E-6  .10327695045E-5                  0.0
                                  0.0              0.0      .10143839035E-5      100.8273267                  0.0

 RSNSHB               -975.4849946245  1032.7695044869      -.9754849946E-6  .10327695045E-5       .5333064247E-3   .5333064247E-3
                      339.17823435568      160.8273267      .33917823436E-6      160.8273267       -.81791619E-20        0.0000000

            TERRA                 0.0              0.0      .97548499462E-6  .10327695045E-5                  0.0
                                  0.0              0.0      -.3391782344E-6      -19.1726733                  0.0

 RSNSHC                 781.479464675  1032.7695044869      .78147946467E-6  .10327695045E-5       .5333064247E-3   .5333064247E-3
                      675.20566917747       40.8273267      .67520566918E-6       40.8273267      -.664391468E-20        0.0000000

            TERRA                 0.0              0.0      -.7814794647E-6  .10327695045E-5                  0.0
                                  0.0              0.0      -.6752056692E-6     -139.1726733                  0.0

 RSNNHA               195.01979062932   1040.342406052      .19501979063E-6  .10403424061E-5      .54115616092E-3  .54115616092E-3
                      -1021.899996621      -79.1955671      -.1021899997E-5      -79.1955671       .895340295E-20        0.0000000

            TERRA                 0.0              0.0      -.1950197906E-6  .10403424061E-5                  0.0
                                  0.0              0.0      .10218999966E-5      100.8044329                  0.0

 RSNNHB               -982.5012525153  1040.3424060521      -.9825012525E-6  .10403424061E-5      .54115616092E-3  .54115616092E-3
                      342.05790538455      160.8044329      .34205790538E-6      160.8044329      -.275285708E-20        0.0000000

            TERRA                 0.0              0.0      .98250125252E-6  .10403424061E-5                  0.0
                                  0.0              0.0      -.3420579054E-6      -19.1955671                  0.0

 RSNNHC               787.48146188594   1040.342406052      .78748146189E-6  .10403424061E-5      .54115616092E-3  .54115616092E-3
                      679.84209123598       40.8044329      .67984209124E-6       40.8044329      .2334634561E-19        0.0000000

            TERRA                 0.0              0.0      -.7874814619E-6  .10403424061E-5                  0.0
                                  0.0              0.0      -.6798420912E-6     -139.1955671                  0.0

 X0001B               -975.4849947678  1032.7695044871      -.3196896164E-4  .97336232617E-4      .11842927725E-5  .11842927725E-5
                      339.17823394399      160.8273267      -.9193654155E-4     -109.1740233      -.0502629463505       -0.0502629

            TERRA                 0.0              0.0      .31968961644E-4  .97336232617E-4                  0.0
                                  0.0              0.0      .91936541547E-4       70.8259767                  0.0

 X0002B               -214333.4878566  428660.75797702      .03498706231412  .04040032463307      .20402327880689  .20402327880689
                      -371229.3110904     -120.0004798      -.0202012796893      -30.0018298      -8659.016887461    -8659.0168875

            TERRA                 0.0              0.0      -.0349870623141  .04040032463307                  0.0
                                  0.0              0.0       .0202012796893      149.9981702                  0.0

 X0001A               194.00553037765   1032.769504487      .42818251699828  .43591787903262      .06863661980037  .95012198633E-7
                      -1014.383903451      -79.1726733      .08175652510545       10.8098564      -225.1013354986              0.0

            LN1A      194.00552994947  1032.7695044869      -.4281825169983  .43591787903262      -.0686365247882
                      -1014.383903533      -79.1726733      -.0817565251054     -169.1901436      225.10133549864

 SB1A                 428660.75796242  428660.75797745      .42829196900129  .44537713346037      91795.760737146  .99180397228E-7
                       -3.58982026532       -0.0004798      .12217520328761       15.9214075      -26186.62636833              0.0

            X0002A    428660.75796199  428660.75797702      -.4282919690013  .44537713346037      -91795.76073705
                      -3.589820387495       -0.0004798      -.1221752032876     -164.0785925      26186.626368335

 X0001B               -975.4849947678  1032.7695044871      -.1432879344065   .4359178716435      .06858522401997   .9501219541E-7
                      339.17823394399      160.8273267      -.4116952254662     -109.1901305      -225.1013316987        0.0000000

            LN1B      -975.4849946245  1032.7695044869      .14328793440654   .4359178716435      -.0685851290078
                      339.17823435568      160.8273267      .41169522546625       70.8098695      225.10133169868

 SB1B                 -214333.4878568  428660.75797745        -.10832445696  .44533449256531      91786.709919874  .99161404421E-7
                      -371229.3110908     -120.0004798      -.4319590516388     -104.0780188      -26185.03830876        0.0000000

            X0002B    -214333.4878566  428660.75797702      .10832445695996  .44533449256531      -91786.70991977
                      -371229.3110904     -120.0004798      .43195905163884       75.9219812      26185.038308758

 X0001C                781.4794643901   1032.769504487        -.28489455417   .4359178999328      .06859954603652   .9501220774E-7
                      675.20566950741       40.8273267      .32993864351738      130.8098658      -225.1013463025              0.0

            LN1C        781.479464675  1032.7695044869      .28489455417002   .4359178999328      -.0685994510243
                      675.20566917747       40.8273267      -.3299386435174      -49.1901342      225.10134630247

 SB1C                 -214327.2701057  428660.75797745      -.3199384082109  .44533690526498      91786.244266683  .99162484446E-7
                      371232.90091108      119.9995202      .30978117138147      135.9240881      -26188.55530033        0.0000000

            X0002C    -214327.2701053  428660.75797702      .31993840821087  .44533690526498      -91786.24426658
                      371232.90091077      119.9995202      -.3097811713815      -44.0759119      26188.555300335

 XX0005               428660.75796199  428660.75797702                  0.0              0.0                  0.0              0.0
                      -3.589820387495       -0.0004798                  0.0              0.0                  0.0              0.0

            X0002A    428660.75796199  428660.75797702                  0.0              0.0                  0.0
                      -3.589820387495       -0.0004798                  0.0              0.0                  0.0

 XX0003               -214333.4878566  428660.75797702                  0.0              0.0                  0.0              0.0
                      -371229.3110904     -120.0004798                  0.0              0.0                  0.0              0.0

            X0002B    -214333.4878566  428660.75797702                  0.0              0.0                  0.0
                      -371229.3110904     -120.0004798                  0.0              0.0                  0.0

 XX0004               -214327.2701053  428660.75797702                  0.0              0.0                  0.0              0.0
                      371232.90091077      119.9995202                  0.0              0.0                  0.0              0.0

            X0002C    -214327.2701053  428660.75797702                  0.0              0.0                  0.0
                      371232.90091077      119.9995202                  0.0              0.0                  0.0

 X0001A               194.00553037765   1032.769504487      .95603861338E-4  .97336232617E-4      .11842927725E-5  .11842927725E-5
                      -1014.383903451      -79.1726733      .18282337857E-4       10.8259767      -.0502629463505       -0.0502629

            TERRA                 0.0              0.0      -.9560386134E-4  .97336232617E-4                  0.0
                                  0.0              0.0      -.1828233786E-4     -169.1740233                  0.0

 X0001A               194.00553037765   1032.769504487      -.4284667524316  .42846794470995      -41.04979315356  91792.389821986
                      -1014.383903451      -79.1726733      -.0010107940831     -179.8648340      217.41293823646        0.0000000

            X0002A    428660.75796199  428660.75797702      .42846675243161  .42846794470995       91833.43961514
                      -3.589820387495       -0.0004798      .00101079408306        0.1351660      -217.4129382365

 X0001B               -975.4849947678  1032.7695044871      .21335800286188  .42846794470995      -41.04979315356  91792.389821986
                      339.17823394399      160.8273267      .37156848932433       60.1351660      217.41293823646        0.0000000

            X0002B    -214333.4878566  428660.75797702      -.2133580028619  .42846794470995       91833.43961514
                      -371229.3110904     -120.0004798      -.3715684893243     -119.8648340      -217.4129382365

 X0001C                781.4794643901   1032.769504487      .21510874956974  .42846794470995      -41.04979315356  91792.389821986
                      675.20566950741       40.8273267      -.3705576952413      -59.8648340      217.41293823645        0.0000000

            X0002C    -214327.2701053  428660.75797702      -.2151087495697  .42846794470995       91833.43961514
                      371232.90091077      119.9995202      .37055769524126      120.1351660      -217.4129382365

 X0002C               -214327.2701053  428660.75797702      -.0349883525569  .04040032463307      .20402327880659  .20402327880659
                      371232.90091077      119.9995202      -.0201990449232     -150.0018298      -8659.016887461    -8659.0168875

            TERRA                 0.0              0.0      .03498835255695  .04040032463307                  0.0
                                  0.0              0.0      .02019904492317       29.9981702                  0.0

 X0002A               428660.75796199  428660.75797702      .12902428233E-5  .04040032463307      .20402327880719  .20402327880719
                      -3.589820387495       -0.0004798      .04040032461247       89.9981702      -8659.016887461    -8659.0168875

            TERRA                 0.0              0.0      -.1290242823E-5  .04040032463307                  0.0
                                  0.0              0.0      -.0404003246125      -90.0018298                  0.0

 X0001C                781.4794643901   1032.769504487      -.6363489969E-4  .97336232617E-4      .11842927725E-5  .11842927725E-5
                      675.20566950741       40.8273267       .7365420369E-4      130.8259767      -.0502629463505       -0.0502629

            TERRA                 0.0              0.0      .63634899693E-4  .97336232617E-4                  0.0
                                  0.0              0.0      -.7365420369E-4      -49.1740233                  0.0

 X0001A               194.00553037765   1032.769504487      .18862723703E-3  .08076430482155      40.981191035441  .40767955833179
                      -1014.383903451      -79.1726733      -.0807640845492      -89.8661840      7.7386693127215   -17302.4578416

            X0002A    428660.75796199  428660.75797702       -.188627237E-3  .08076430482155      -40.57351147711
                      -3.589820387495       -0.0004798      .08076408454922       90.1338160      -17310.19651092

 X0001B               -975.4849947678  1032.7695044871      -.0700380625515  .08076430482155      40.981191035442  .40767955833223
                      339.17823394399      160.8273267       .0402186862955      150.1338160      7.7386693127217   -17302.4578416

            X0002B    -214333.4878566  428660.75797702      .07003806255154  .08076430482155      -40.57351147711
                      -371229.3110904     -120.0004798      -.0402186862955      -29.8661840      -17310.19651092

 X0001C                781.4794643901   1032.769504487      .06984943531451  .08076430482155      40.981191035441  .40767955833208
                      675.20566950741       40.8273267      .04054539825372       30.1338160      7.7386693127214   -17302.4578416

            X0002C    -214327.2701053  428660.75797702      -.0698494353145  .08076430482155      -40.57351147711
                      371232.90091077      119.9995202      -.0405453982537     -149.8661840      -17310.19651092

 LN1A                 194.00552994947  1032.7695044869      .42818233025663  .43591789633338      .06807558374754  .06753442758645
                      -1014.383903533      -79.1726733      .08175759536412       10.8099992      -225.1013446028     -225.1013446

            VFF2A     195.01979062932   1040.342406052      -.1950197946E-6  .10403424064E-5      -.5411561611E-3
                      -1021.899996621      -79.1955671      .10218999962E-5      100.8044331       .208242104E-11

 LN1B                 -975.4849946245  1032.7695044869      -.1432870105907  .43591789633338      .06807558374832  .06753442758709
                      339.17823435568      160.8273267      -.4116955731359     -109.1900008      -225.1013446028     -225.1013446

            VFF2B     -982.5012525153  1040.3424060521      .98250125219E-6  .10403424066E-5      -.5411561612E-3
                      342.05790538455      160.8044329      -.3420579081E-6      -19.1955673       -.14112609E-11

 LN1C                   781.479464675  1032.7695044869       -.284895319666  .43591789633338      .06807558374673  .06753442758717
                      675.20566917747       40.8273267       .3299379777718      130.8099992      -225.1013446028     -225.1013446

            VFF2C     787.48146188594   1040.342406052      -.7874814568E-6  .10403424034E-5      -.5411561596E-3
                      679.84209123598       40.8044329      -.6798420931E-6     -139.1955669      .2459438883E-11
     Total network loss  P-loss  by summing injections =   2.756748345103E+05

Output for steady-state phasor switch currents.
      Node-K    Node-M            I-real            I-imag            I-magn          Degrees        Power            Reactive
      LN1A      COMPA         2.15870567E-07   -1.04715010E-06    1.06916951E-06     -78.3516    5.52046146E-04   -7.91135872E-06
      LN1B      COMPB        -9.80388208E-07    3.92835090E-07    1.05616308E-06     158.1643    5.44797549E-04    2.53391969E-05
      LN1C      COMPC         7.97331766E-07    7.80734751E-07    1.11592325E-06      44.3974    5.75127466E-04   -3.58826235E-05
      VFF2A     RSNNHA        1.95019792E-07   -1.02190000E-06    1.04034241E-06     -79.1956    5.41156161E-04   -9.12790585E-13
      VFF2B     RSNNHB       -9.82501252E-07    3.42057908E-07    1.04034241E-06     160.8044    5.41156161E-04    1.17911215E-12
      VFF2C     RSNNHC        7.87481459E-07    6.79842092E-07    1.04034240E-06      40.8044    5.41156160E-04   -1.11257082E-12
      VFF2A     SE2A              Open              Open              Open             Open          Open              Open
      VFF2B     SE2B              Open              Open              Open             Open          Open              Open
      VFF2C     SE2C              Open              Open              Open             Open          Open              Open
      X0001B    XX0003            Open              Open              Open             Open          Open              Open
      X0001C    XX0004            Open              Open              Open             Open          Open              Open
      XX0005    X0002A            Open              Open              Open             Open          Open              Open
      XX0003    X0002B            Open              Open              Open             Open          Open              Open
      XX0004    X0002C            Open              Open              Open             Open          Open              Open
      X0001A    XX0005            Open              Open              Open             Open          Open              Open
      VFUENA    IFUENA        4.28700475E-01    1.22175200E-01    4.45769981E-01      15.9070    9.18835238E+04   -2.61858536E+04
      VFUENB    IFUENB       -1.08543411E-01   -4.32353101E-01    4.45769981E-01    -104.0930    9.18835238E+04   -2.61858536E+04
      VFUENC    IFUENC       -3.20157064E-01    3.10177902E-01    4.45769981E-01     135.9070    9.18835238E+04   -2.61858536E+04
      COMPA     RSNSHA        2.15870567E-07   -1.04715010E-06    1.06916951E-06     -78.3516    5.52046146E-04   -7.91135872E-06
      COMPB     RSNSHB       -9.80388208E-07    3.92835090E-07    1.05616308E-06     158.1643    5.44797549E-04    2.53391969E-05
      COMPC     RSNSHC        7.97331766E-07    7.80734751E-07    1.11592325E-06      44.3974    5.75127466E-04   -3.58826235E-05

Solution at nodes with known voltage.   Nodes that are shorted together by switches are shown as a group of names, with the printed
result applying to the composite group.   The entry "MVA" is  SQRT( P**2 + Q**2 )  in units of power,  while  "P.F."  is the
associated power factor.
              Node                Source  node  voltage             Injected  source  current              Injected  source  power
              name         Rectangular            Polar          Rectangular            Polar            P  and  Q    MVA and P.F.

               VFUENA
              IFUENA       428660.705       428660.705      .42870047458206  .44576998141734      91883.523834091  95542.037251096
                                  0.0              0.0      .12217519971715       15.9070037      -26185.85362214        0.9617078

               VFUENB
              IFUENB     -214330.3525       428660.705      -.1085434106171  .44576998141498      91883.523833249  95542.037250591
                      -371231.0601341     -120.0000000      -.4323531014603     -104.0929963      -26185.85362325        0.9617078

               VFUENC
              IFUENC     -214330.3525       428660.705      -.3201570639493  .44576998140986      91883.523832875  95542.037249493
                      371231.06013415      120.0000000      .31017790174272      135.9070037      -26185.85362055        0.9617078

  +++  Node  "COMPC "  has no connected linear branches.  Add (to ground) the conductance  G = 1.00000000E-18  mhos.
  +++  Node  "COMPB "  has no connected linear branches.  Add (to ground) the conductance  G = 1.00000000E-18  mhos.
  +++  Node  "COMPA "  has no connected linear branches.  Add (to ground) the conductance  G = 1.00000000E-18  mhos.
Card of names for time-step loop output.          |  LN1A  LN1B  LN1C  COMPA COMPB COMPC SB1A  SB1B  SB1C  SE2A  SE2B  SE2C  VFF2A
Card of names for time-step loop output.          |  VFF2B VFF2C IFUENAIFUENBIFUENC
Card of names for time-step loop output.          |-5VFF2A VFF2B VFF2B VFF2C VFF2C VFF2A LN1A  LN1B  LN1B  LN1C  LN1C  LN1A
Card of names for time-step loop output.          |-5SB1A  SB1B  SB1B  SB1C  SB1C  SB1A
Blank card ending requests for output variables.  |BLANK OUTPUT

Column headings for the  55   EMTP output variables follow.  These are divided among the 5 possible classes as follows ....
  First  27     output variables are electric-network voltage differences (upper voltage minus lower voltage);
  Next   6     output variables are branch currents (flowing from the upper node to the lower node);
  Next   22     output variables belong to MODELS (with "MODELS" an internally-added upper name of pair).
   Step      Time      LN1A       LN1B       LN1C       COMPA      COMPB      COMPC      SB1A       SB1B       SB1C       SE2A
 

                       SE2B       SE2C       VFF2A      VFF2B      VFF2C      IFUENA     IFUENB     IFUENC     VFF2A      VFF2B
                                                                                                               VFF2B      VFF2C

                       VFF2C      LN1A       LN1B       LN1C       SB1A       SB1B       SB1C       VFUENA     VFUENB     VFUENC
                       VFF2A      LN1B       LN1C       LN1A       SB1B       SB1C       SB1A       IFUENA     IFUENB     IFUENC

                       COMPA      COMPB      COMPC      MODELS     MODELS     MODELS     MODELS     MODELS     MODELS     MODELS
                       RSNSHA     RSNSHB     RSNSHC     ANVOL      LONG       R0F        R1F        X0F        X1F        RDIVX

                       MODELS     MODELS     MODELS     MODELS     MODELS     MODELS     MODELS     MODELS     MODELS     MODELS
                       RINSER     CLOSE1     RPPOS      RPCERO     LPPOS      LPCERO     CPPOS      CPCERO     XP         CR

                       MODELS     MODELS     MODELS     MODELS     MODELS
                       SIMET      ENC1       ENC2       ENC1AS     ENC2AS
 ***      Phasor I(0) =  2.1587057E-07                     Switch  "LN1A  "  to  "COMPA "  closed in the steady-state.
 ***      Phasor I(0) = -9.8038821E-07                     Switch  "LN1B  "  to  "COMPB "  closed in the steady-state.
 ***      Phasor I(0) =  7.9733177E-07                     Switch  "LN1C  "  to  "COMPC "  closed in the steady-state.
 ***      Phasor I(0) =  1.9501979E-07                     Switch  "VFF2A "  to  "RSNNHA"  closed in the steady-state.
 ***      Phasor I(0) = -9.8250125E-07                     Switch  "VFF2B "  to  "RSNNHB"  closed in the steady-state.
 ***      Phasor I(0) =  7.8748146E-07                     Switch  "VFF2C "  to  "RSNNHC"  closed in the steady-state.
 ***      Phasor I(0) =  4.2870047E-01                     Switch  "VFUENA"  to  "IFUENA"  closed in the steady-state.
 ***      Phasor I(0) = -1.0854341E-01                     Switch  "VFUENB"  to  "IFUENB"  closed in the steady-state.
 ***      Phasor I(0) = -3.2015706E-01                     Switch  "VFUENC"  to  "IFUENC"  closed in the steady-state.
 ***      Phasor I(0) =  2.1587057E-07                     Switch  "COMPA "  to  "RSNSHA"  closed in the steady-state.
 ***      Phasor I(0) = -9.8038821E-07                     Switch  "COMPB "  to  "RSNSHB"  closed in the steady-state.
 ***      Phasor I(0) =  7.9733177E-07                     Switch  "COMPC "  to  "RSNSHC"  closed in the steady-state.
      0       0.0   194.00553 -975.48499 781.479465  194.00553 -975.48499 781.479465 428660.758 -214333.49 -214327.27        0.0
                          0.0        0.0 195.019791 -982.50125 787.481462 428660.705 -214330.35 -214330.35 1177.52104 -1769.9827
                   592.461671 1169.49052 -1756.9645 587.473935 642994.246 -6.2177511 -642988.03 .428700475 -.10854341 -.32015706
                   .215871E-6 -.98039E-6 .797332E-6        0.0    102.605   2.168176   2.092863   8.057142   7.777271      .2691
                         440.    .058521    .018455    .347536    .338204    .879287    .013027    .009708   3663.635   73.27271
                          0.0        0.0        0.0        0.0        0.0
    500     .5E-3  350.301539 -1016.5343 666.232716 350.301539 -1016.5343 666.232716 423383.801 -153621.63 -269762.17        0.0
                          0.0        0.0 352.476876 -1023.9135 671.436609  423383.18 -153618.26 -269764.92 1376.39036 -1695.3501
                   318.959733 1366.83579  -1682.767 315.931177 577005.433 116140.538 -693145.97 .404324957  -.0395775 -.36474746
                   .374567E-6 -.10982E-5 .723638E-6        0.0    102.605   2.168176   2.092863   8.057142   7.777271      .2691
                         440.    .058521    .018455    .347536    .338204    .879287    .013027    .009708   3663.635   73.27271
                          0.0        0.0        0.0        0.0        0.0
   1000     .1E-2  497.972035 -1032.5531 534.581062 497.972035 -1032.5531 534.581062 407681.686 -89127.079 -318554.61        0.0
                          0.0        0.0 501.259432 -1040.1159 538.856496 407680.557 -89123.572 -318556.98 1541.37536 -1578.9724
                   37.5970634 1530.52513 -1567.1342 36.6090273 496808.765 229427.528 -726236.29 .369978903 .030370285 -.40034919
                   .524025E-6 -.11142E-5 .590284E-6        0.0    102.605   2.168176   2.092863   8.057142   7.777271      .2691
                         440.    .058521    .018455    .347536    .338204    .879287    .013027    .009708   3663.635   73.27271
                          0.0        0.0        0.0        0.0        0.0
   1500     .0015  633.380658  -1023.147 389.766359 633.380658  -1023.147 389.766359 381941.159 -22437.954  -359503.2        0.0
                          0.0        0.0 637.696213 -1030.7057 393.009467 381939.485 -22434.368 -359505.12 1668.40189 -1423.7151
                   -244.68675 1656.52768 -1412.9134  -243.6143 404379.113  337065.25 -741444.36 .326520673 .099571301 -.42609197
                   .650171E-6 -.10729E-5 .422733E-6        0.0    102.605   2.168176   2.092863   8.057142   7.777271      .2691
                         440.    .058521    .018455    .347536    .338204    .879287    .013027    .009708   3663.635   73.27271
                          0.0        0.0        0.0        0.0        0.0
   2000      .002  753.192875 -988.54738 235.354509 753.192875 -988.54738 235.354509 346795.949 44803.6795 -391599.63        0.0
                          0.0        0.0 758.432562 -995.91691 237.484345 346793.795 44807.2448 -391601.04 1754.34947 -1233.4013
                   -520.94822 1741.74026 -1223.9019 -517.83837  301992.27 436403.308 -738395.58 .275026156  .16631867 -.44134483
                   .838644E-6 -.98923E-6 .235799E-6        0.0    102.605   2.168176   2.092863   8.057142   7.777271      .2691
                         440.    .058521    .018455    .347536    .338204    .879287    .013027    .009708   3663.635   73.27271
                          0.0        0.0        0.0        0.0        0.0
   2500     .0025   854.45898 -929.60644 75.1474617  854.45898 -929.60644 75.1474617 303111.462 110942.103 -414053.57        0.0
                          0.0        0.0  860.49196 -936.60449 76.1125301 303108.891 110945.554 -414054.45 1797.09645  -1012.717
                   -784.37943 1784.06542 -1004.7539 -779.31152 192169.359 524995.668 -717165.03 .216756424 .228972296 -.44572872
                   .903037E-6 -.95694E-6 .822911E-7        0.0    102.605   2.168176   2.092863   8.057142   7.777271      .2691
                         440.    .058521    .018455    .347536    .338204    .879287    .013027    .009708   3663.635   73.27271
                          0.0        0.0        0.0        0.0        0.0
   3000      .003  934.687285 -847.77644  -86.91084 934.687285 -847.77644  -86.91084 251963.371 174348.761 -426312.13        0.0
                          0.0        0.0 941.363466 -854.22987   -87.1336 251960.441 174352.016 -426312.46 1795.59333 -767.09627
                   -1028.4971 1782.46373  -760.8656 -1021.5981   77614.61 600660.892  -678275.5 .153151062  .28598705 -.43913811
                   .101263E-5  -.8413E-6 -.86118E-7        0.0    102.605   2.168176   2.092863   8.057142   7.777271      .2691
                         440.    .058521    .018455    .347536    .338204    .879287    .013027    .009708   3663.635   73.27271
                          0.0        0.0        0.0        0.0        0.0
   3500     .0035  991.899097 -745.07064 -246.82845 991.899097 -745.07064 -246.82845 194611.104 233462.374 -428073.48        0.0
                          0.0        0.0 999.057179 -750.82212 -248.23506 194607.888 233465.353 -428073.24  1749.8793 -502.58705
                   -1247.2922 1736.96974 -498.24219 -1238.7276 -38851.269 661535.852 -622684.58 .085774279  .33596002  -.4217343
                   .107917E-5 -.76161E-6 -.26073E-6        0.0    102.605   2.168176   2.092863   8.057142   7.777271      .2691
                         440.    .058521    .018455    .347536    .338204    .879287    .013027    .009708   3663.635   73.27271
                          0.0        0.0        0.0        0.0        0.0
   4000      .004  1024.68743 -624.01892 -400.66851 1024.68743 -624.01892 -400.66851 132466.873 286827.365 -419294.24        0.0
                          0.0        0.0 1032.14855 -628.92555 -403.22301 132463.443 286829.997 -419293.44  1661.0741 -225.70254
                   -1435.3716 1648.70635 -223.35041 -1425.3559 -154360.49 706121.603 -551761.11   .0162855 .377660518 -.39394602
                   .106565E-5 -.62495E-6 -.44078E-6        0.0    102.605   2.168176   2.092863   8.057142   7.777271      .2691
                         440.    .058521    .018455    .347536    .338204    .879287    .013027    .009708   3663.635   73.27271
                          0.0        0.0        0.0        0.0        0.0
   4500     .0045  1032.24386 -487.60147 -544.64239 1032.24386 -487.60147 -544.64239 67060.8618 333129.718 -400190.58        0.0
                          0.0        0.0 1039.82639 -491.54341 -548.28298 67057.3081 333131.936 -400189.24 1531.36981 56.7395706
                   -1588.1094 1519.84533 57.0409183 -1576.8862 -266068.86 733320.297 -467251.44 -.05360446 .410061845 -.35645738
                   .117731E-5 -.50836E-6 -.61217E-6        0.0    102.605   2.168176   2.092863   8.057142   7.777271      .2691
                         440.    .058521    .018455    .347536    .338204    .879287    .013027    .009708   3663.635   73.27271
                          0.0        0.0        0.0        0.0        0.0
   5000      .005  1014.38293 -339.17757 -675.20536 1014.38293 -339.17757 -675.20536 3.59007548 371229.311  -371232.9        0.0
                          0.0        0.0 1021.89623 -342.05584 -679.84039 -.45661E-7  371231.06 -371231.06 1363.95207 337.784552
                   -1701.7366  1353.5605 336.027792 -1689.5883 -371225.72 742462.212 -371236.49 -.12217541 .432366546 -.31019113
                   .103935E-5 -.37938E-6 -.65996E-6        0.0    102.605   2.168176   2.092863   8.057142   7.777271      .2691
                         440.    .058521    .018455    .347536    .338204    .879287    .013027    .009708   3663.635   73.27271
                          0.0        0.0        0.0        0.0        0.0
   5500     .0055  971.547228 -182.40335 -789.14388 971.547228 -182.40335 -789.14388 -67053.769 400188.006 -333134.24        0.0
                          0.0        0.0 978.810393 -184.14913 -794.66126 -67057.308 400189.244 -333131.94 1162.95952 610.512132
                   -1773.4717 1153.95058 606.740535 -1760.6911 -467241.78 733322.243 -266080.47 -.18773708 .444024484 -.25628741
                   .105577E-5 -.20513E-6 -.87905E-6        0.0    102.605   2.168176   2.092863   8.057142   7.777271      .2691
                         440.    .058521    .018455    .347536    .338204    .879287    .013027    .009708   3663.635   73.27271
                          0.0        0.0        0.0        0.0        0.0
   6000      .006  904.785071 -21.135914 -883.64916 904.785071 -21.135914 -883.64916 -132460.05 419292.747  -286832.7        0.0
                          0.0        0.0 911.619644 -21.706369 -889.91328 -132463.44  419293.44   -286830. 933.326012 868.206907
                   -1801.5329 925.920985 862.513243 -1788.4342 -551752.79 706125.446 -154372.65 -.24867589 .444748995 -.19607311
                   .928818E-6 -.22543E-7 -.91706E-6        0.0    102.605   2.168176   2.092863   8.057142   7.777271      .2691
                         440.    .058521    .018455    .347536    .338204    .879287    .013027    .009708   3663.635   73.27271
                          0.0        0.0        0.0        0.0        0.0
   6500     .0065  815.745761 140.651158 -956.39692 815.745761 140.651158 -956.39692 -194604.71 428073.106 -233468.39        0.0
                          0.0        0.0 821.981915 141.270784  -963.2527 -194607.89  428073.24 -233465.35 680.711131 1104.52348
                   -1785.2346 675.094603 1097.04808 -1772.1427 -622677.82 661541.498 -38863.677 -.30349176 .434522454 -.13103069
                   .816873E-6 .150008E-6 -.96695E-6        0.0    102.605   2.168176   2.092863   8.057142   7.777271      .2691
                         440.    .058521    .018455    .347536    .338204    .879287    .013027    .009708   3663.635   73.27271
                          0.0        0.0        0.0        0.0        0.0
   7000      .007  706.619085 298.975434 -1005.5945 706.619085 298.975434 -1005.5945 -251957.57 426312.885 -174355.32        0.0
                          0.0        0.0 712.104238 300.769434 -1012.8737 -251960.44 426312.457 -174352.02 411.334803 1313.64311
                   -1724.9779 407.643651 1304.56995 -1712.2136 -678270.45 600668.202 77602.2501 -.35083431 .413596352 -.06276204
                   .718719E-6 .296204E-6 -.10149E-5        0.0    102.605   2.168176   2.092863   8.057142   7.777271      .2691
                         440.    .058521    .018455    .347536    .338204    .879287    .013027    .009708   3663.635   73.27271
                          0.0        0.0        0.0        0.0        0.0
   7500     .0075  580.094359 449.937279 -1030.0316 580.094359 449.937279 -1030.0316 -303106.39 414055.426 -110949.04        0.0
                          0.0        0.0 584.692779 452.861838 -1037.5546 -303108.89 414054.446 -110945.55 131.830941 1490.41645
                   -1622.2474  130.15708 1479.96892  -1610.126 -717161.82 525004.462 192157.354 -.38953883 .382486477 .007052358
                   .569127E-6  .48165E-6 -.10509E-5        0.0    102.605   2.168176   2.092863   8.057142   7.777271      .2691
                         440.    .058521    .018455    .347536    .338204    .879287    .013027    .009708   3663.635   73.27271
                          0.0        0.0        0.0        0.0        0.0
   8000      .008  439.286154 589.820016 -1029.1062 439.286154 589.820016 -1029.1062 -346791.73 391602.548 -44810.821        0.0
                          0.0        0.0 442.882915 593.803912 -1036.6868  -346793.8  391601.04 -44807.245   -150.921 1630.49074
                   -1479.5697 -150.53386 1618.92619 -1468.3923 -738394.27 436413.369 301980.905 -.41865178 .341958593 .076693184
                   .479106E-6 .569389E-6 -.10485E-5        0.0    102.605   2.168176   2.092863   8.057142   7.777271      .2691
                         440.    .058521    .018455    .347536    .338204    .879287    .013027    .009708   3663.635   73.27271
                          0.0        0.0        0.0        0.0        0.0
   8500     .0085  287.658944 715.180597 -1002.8395 287.658944 715.180597 -1002.8395  -381937.9 359507.117 22430.7857        0.0
                          0.0        0.0 290.168274 720.124368 -1010.2926 -381939.48 359505.117 22434.3679 -429.95609 1730.41701
                   -1300.4609 -427.52165 1718.02014 -1290.4985 -741445.02 337076.331 404368.688 -.43745552 .293010251 .144445266
                   .277149E-6 .742782E-6   -.102E-5        0.0    102.605   2.168176   2.092863   8.057142   7.777271      .2691
                         440.    .058521    .018455    .347536    .338204    .879287    .013027    .009708   3663.635   73.27271
                          0.0        0.0        0.0        0.0        0.0
   9000      .009  128.951234 822.929712 -951.88095 128.951234 822.929712 -951.88095  -407679.5 318559.427 89120.0722        0.0
                          0.0        0.0 130.309235 828.712708 -959.02194 -407680.56 318556.985  89123.572 -698.40347 1787.73465
                   -1089.3312 -693.97848 1774.81066 -1080.8322 -726238.93 229439.355 496799.571 -.44548726 .236846827  .20864043
                   .132101E-6 .813791E-6 -.10311E-5        0.0    102.605   2.168176   2.092863   8.057142   7.777271      .2691
                         440.    .058521    .018455    .347536    .338204    .879287    .013027    .009708   3663.635   73.27271
                          0.0        0.0        0.0        0.0        0.0
   9500     .0095  -32.933022 910.416261 -877.48324 -32.933022 910.416261 -877.48324 -423382.67 269767.744 153614.924        0.0
                          0.0        0.0 -32.758956 916.895611 -884.13665 -423383.18 269764.922 153618.258 -949.65457 1801.03227
                    -851.3777 -943.34928  1787.8995 -844.55022 -693150.41  116152.82 576997.592  -.4425497 .174851486 .267698211
                   -.35617E-7 .979653E-6  -.9014E-6        0.0    102.605   2.168176   2.092863   8.057142   7.777271      .2691
                         440.    .058521    .018455    .347536    .338204    .879287    .013027    .009708   3663.635   73.27271
                          0.0        0.0        0.0        0.0        0.0
  10000       .01  -194.00777 975.486035 -781.47827 -194.00777 975.486035 -781.47827 -428660.76 214333.488  214327.27        0.0
                          0.0        0.0 -195.01985 982.501208 -787.48135 -428660.71 214330.353 214330.352 -1177.5211 1769.98256
                    -592.4615 -1169.4938 1756.96431 -587.47051 -642994.25 6.21797114 642988.028 -.42871561 .108550974 .320164632
                   -.20299E-6 .103675E-5 -.86211E-6        0.0    102.605   2.168176   2.092863   8.057142   7.777271      .2691
                         440.    .058521    .018455    .347536    .338204    .879287    .013027    .009708   3663.635   73.27271
                          0.0        0.0        0.0        0.0        0.0
  10500     .0105  -350.30197 1016.53439 -666.23242 -350.30197 1016.53439 -666.23242 -423383.79 153621.628 269762.165        0.0
                          0.0        0.0 -352.47988 1023.91494 -671.43506 -423383.18 153618.258 269764.922 -1376.3948 1695.35001
                   -318.95519 -1366.8364 1682.76681 -315.93046 -577005.42 -116140.54 693145.959 -.40432571 .039577879 .364747831
                   -.35395E-6 .108612E-5 -.73214E-6        0.0    102.605   2.168176   2.092863   8.057142   7.777271      .2691
                         440.    .058521    .018455    .347536    .338204    .879287    .013027    .009708   3663.635   73.27271
                          0.0        0.0        0.0        0.0        0.0
  11000      .011  -497.97289 1032.55346 -534.58058 -497.97289 1032.55346 -534.58058 -407681.72 89127.0954 318554.623        0.0
                          0.0        0.0 -501.25991 1040.11607 -538.85616 -407680.56  89123.572 318556.985  -1541.376 1578.97224
                   -37.596253 -1530.5264 1567.13404 -36.607688 -496808.81 -229427.53 726236.341 -.36997835 -.03037057 .400348917
                   -.51823E-6 .111577E-5 -.59756E-6        0.0    102.605   2.168176   2.092863   8.057142   7.777271      .2691
                         440.    .058521    .018455    .347536    .338204    .879287    .013027    .009708   3663.635   73.27271
                          0.0        0.0        0.0        0.0        0.0
  11500     .0115  -633.38124  1023.1472 -389.76596 -633.38124  1023.1472 -389.76596 -381941.16 22437.9562 359503.207        0.0
                          0.0        0.0 -637.69709 1030.70604 -393.00895 -381939.48 22434.3679 359505.117 -1668.4031 1423.71499
                   244.688136 -1656.5284 1412.91316  243.61528 -404379.12 -337065.25  741444.37  -.3265223 -.09957049 .426092787
                   -.70936E-6 .110328E-5 -.39392E-6        0.0    102.605   2.168176   2.092863   8.057142   7.777271      .2691
                         440.    .058521    .018455    .347536    .338204    .879287    .013027    .009708   3663.635   73.27271
                          0.0        0.0        0.0        0.0        0.0
  12000      .012  -753.19405 988.547899 -235.35385 -753.19405 988.547899 -235.35385 -346795.95 -44803.681 391599.627        0.0
                          0.0        0.0 -758.43243 995.916798 -237.48437  -346793.8 -44807.245  391601.04 -1754.3492 1233.40117
                   520.948062  -1741.742 1223.90174 517.840207 -301992.26 -436403.31 738395.573 -.27502543 -.16631903 .441344459
                   -.75251E-6 .100196E-5 -.24957E-6        0.0    102.605   2.168176   2.092863   8.057142   7.777271      .2691
                         440.    .058521    .018455    .347536    .338204    .879287    .013027    .009708   3663.635   73.27271
                          0.0        0.0        0.0        0.0        0.0
  12500     .0125  -854.46055 929.607172  -75.14662 -854.46055 929.607172  -75.14662 -303111.47  -110942.1 414053.569        0.0
                          0.0        0.0 -860.49232 936.604585 -76.112261 -303108.89 -110945.55 414054.446 -1797.0969 1012.71685
                   784.380063 -1784.0677 1004.75379 779.313933 -192169.37 -524995.67 717165.038 -.21675721 -.22897191 .445729113
                   -.90632E-6 .959052E-6 -.81134E-7        0.0    102.605   2.168176   2.092863   8.057142   7.777271      .2691
                         440.    .058521    .018455    .347536    .338204    .879287    .013027    .009708   3663.635   73.27271
                          0.0        0.0        0.0        0.0        0.0
  13000      .013  -934.68778 847.776589 86.9111917 -934.68778 847.776589 86.9111917 -251963.38 -174348.76 426312.134        0.0
                          0.0        0.0 -941.36512 854.230622 87.1344997 -251960.44 -174352.02 426312.457 -1795.5957 767.096123
                   1028.49962 -1782.4644 760.865397 1021.59897 -77614.617 -600660.89 678275.509 -.15315131 -.28598693 .439138237
                   -.93834E-6 .861693E-6 .908694E-7        0.0    102.605   2.168176   2.092863   8.057142   7.777271      .2691
                         440.    .058521    .018455    .347536    .338204    .879287    .013027    .009708   3663.635   73.27271
                          0.0        0.0        0.0        0.0        0.0
  13500     .0135  -991.89964 745.070847 246.828794 -991.89964 745.070847 246.828794 -194611.11 -233462.37 428073.482        0.0
                          0.0        0.0 -999.05872 750.822842 248.235876 -194607.89 -233465.35  428073.24 -1749.8816 502.586966
                   1247.29459 -1736.9705 498.242052 1238.72844  38851.259 -661535.85 622684.593 -.08577372  -.3359603 .421734024
                   -.10719E-5 .816118E-6 .255794E-6        0.0    102.605   2.168176   2.092863   8.057142   7.777271      .2691
                         440.    .058521    .018455    .347536    .338204    .879287    .013027    .009708   3663.635   73.27271
                          0.0        0.0        0.0        0.0        0.0
  14000      .014  -1024.6871  624.01869  400.66838 -1024.6871  624.01869  400.66838 -132466.87 -286827.37 419294.238        0.0
                          0.0        0.0 -1032.1492 628.925809 403.223436 -132463.44   -286830.  419293.44 -1661.0751 225.702373
                   1435.37268 -1648.7058  223.35031 1425.35545 154360.493  -706121.6 551761.111 -.01628521 -.37766066  .39394587
                   -.11447E-5 .664037E-6  .42381E-6        0.0    102.605   2.168176   2.092863   8.057142   7.777271      .2691
                         440.    .058521    .018455    .347536    .338204    .879287    .013027    .009708   3663.635   73.27271
                          0.0        0.0        0.0        0.0        0.0
  14500     .0145  -1032.2445  487.60169 544.642804 -1032.2445  487.60169 544.642804 -67060.861 -333129.72 400190.579        0.0
                          0.0        0.0 -1039.8269   491.5436 548.283303 -67057.308 -333131.94 400189.244 -1531.3705 -56.739704
                   1588.11021 -1519.8462 -57.041114  1576.8873 266068.857  -733320.3  467251.44 .053605192 -.41006221 .356457018
                   -.98857E-6 .527099E-6 .518339E-6        0.0    102.605   2.168176   2.092863   8.057142   7.777271      .2691
                         440.    .058521    .018455    .347536    .338204    .879287    .013027    .009708   3663.635   73.27271
                          0.0        0.0        0.0        0.0        0.0
  % % % % % %   Suspended simulation;  plot data space exhausted;  SPY SPACE is required.   LIMBUF =  840000.
  % % % % % %   Suspended simulation;  plot data space exhausted;  SPY SPACE is required.   LIMBUF =  840000.
  +++  Time-sharing disabled.   Send  user-keyed interrupt to silence alarm.
   Current values.  INDBUF  INDBEG  LIMBUF  MFLUSH  NUMDCD  KCARD1  KCARD2
                    839994      50  840000    1000     230       1     231
Plot timespan now in memory (in sec) = 0.00000000E+00   1.49990000E-02
   ++++  Begin plot-data copy from memory to disk.   MFLUSH, INDBUF, N4, Tbeg,  Tend = 1001  839994       1  -1.00000E+00
1.00000E+19
  15000      .015  -1014.3842 339.178152 675.206086 -1014.3842 339.178152 675.206086 -3.5913306 -371229.31 371232.902        0.0
                          0.0        0.0 -1021.8999 342.057627 679.842321 -.61533E-6 -371231.06  371231.06 -1363.9576 -337.78469
                   1701.74227 -1353.5624 -336.02793 1689.59032 371225.719 -742462.21 371236.493 .122175087 -.43236638 .310191296
                   -.10208E-5 .371218E-6 .763161E-6        0.0    102.605   2.168176   2.092863   8.057142   7.777271      .2691
                         440.    .058521    .018455    .347536    .338204    .879287    .013027    .009708   3663.635   73.27271
                          0.0        0.0        0.0        0.0        0.0
  15500     .0155  -971.54692 182.403145 789.143778 -971.54692 182.403145 789.143778 67053.7705 -400188.01 333134.236        0.0
                          0.0        0.0 -978.81131  184.14951 794.661797 67057.3081 -400189.24 333131.936 -1162.9608 -610.51229
                    1773.4731 -1153.9501 -606.74063  1760.6907 467241.777 -733322.24 266080.466  .18773686 -.44402438 .256287516
                   -.10018E-5  .17888E-6 .851345E-6        0.0    102.605   2.168176   2.092863   8.057142   7.777271      .2691
                         440.    .058521    .018455    .347536    .338204    .879287    .013027    .009708   3663.635   73.27271
                          0.0        0.0        0.0        0.0        0.0
  16000      .016  -904.78535 21.1359595 883.649389 -904.78535 21.1359595 883.649389 132460.045 -419292.75 286832.701        0.0
                          0.0        0.0 -911.61975 21.7063595 889.913392 132463.443 -419293.44 286829.997 -933.32611 -868.20703
                   1801.53314 -925.92131 -862.51343 1788.43474  551752.79 -706125.45 154372.656  .24867614 -.44474912 .196072981
                    -.9529E-6 .206771E-7 .871834E-6        0.0    102.605   2.168176   2.092863   8.057142   7.777271      .2691
                         440.    .058521    .018455    .347536    .338204    .879287    .013027    .009708   3663.635   73.27271
                          0.0        0.0        0.0        0.0        0.0
  16500     .0165  -815.74624   -140.651 956.397234 -815.74624   -140.651 956.397234 194604.714 -428073.11 233468.392        0.0
                          0.0        0.0  -821.9825  -141.2706   963.2531 194607.888 -428073.24 233465.353  -680.7119 -1104.5237
                    1785.2356 -675.09524 -1097.0482 1772.14347 622677.819  -661541.5 38863.6785 .303491571 -.43452236 .131030788
                   -.88508E-6 -.14477E-6 .105827E-5        0.0    102.605   2.168176   2.092863   8.057142   7.777271      .2691
                         440.    .058521    .018455    .347536    .338204    .879287    .013027    .009708   3663.635   73.27271
                          0.0        0.0        0.0        0.0        0.0
  17000      .017  -706.62064  -298.9747 1005.59534 -706.62064  -298.9747 1005.59534 251957.569 -426312.89 174355.317        0.0
                          0.0        0.0 -712.10486  -300.7692 1012.87406 251960.441 -426312.46 174352.016 -411.33566 -1313.6433
                   1724.97892 -407.64594   -1304.57 1712.21598 678270.454  -600668.2 -77602.252 .350834509 -.41359645 .062761942
                   -.75212E-6 -.33624E-6  .10315E-5        0.0    102.605   2.168176   2.092863   8.057142   7.777271      .2691
                         440.    .058521    .018455    .347536    .338204    .879287    .013027    .009708   3663.635   73.27271
                          0.0        0.0        0.0        0.0        0.0
  17500     .0175  -580.09528 -449.93691 1030.03219 -580.09528 -449.93691 1030.03219  303106.39 -414055.43 110949.036        0.0
                          0.0        0.0 -584.69261 -452.86198 1037.55459 303108.891 -414054.45 110945.554 -131.83063 -1490.4166
                    1622.2472 -130.15838 -1479.9691 1610.12747 717161.815 -525004.46 -192157.35 .389538813 -.38248647 -.00705235
                   -.64816E-6 -.49915E-6 .103359E-5        0.0    102.605   2.168176   2.092863   8.057142   7.777271      .2691
                         440.    .058521    .018455    .347536    .338204    .879287    .013027    .009708   3663.635   73.27271
                          0.0        0.0        0.0        0.0        0.0
  18000      .018  -439.28608 -589.82013 1029.10621 -439.28608 -589.82013 1029.10621 346791.729 -391602.55 44810.8199        0.0
                          0.0        0.0 -442.88346 -593.80374  1036.6872 346793.795 -391601.04 44807.2448 150.920277 -1630.4909
                   1479.57067 150.534053 -1618.9263 1468.39228 738394.278 -436413.37 -301980.91 .418651366 -.34195839 -.07669298
                   -.48083E-6 -.59741E-6 .113511E-5        0.0    102.605   2.168176   2.092863   8.057142   7.777271      .2691
                         440.    .058521    .018455    .347536    .338204    .879287    .013027    .009708   3663.635   73.27271
                          0.0        0.0        0.0        0.0        0.0
  18500     .0185  -287.66117 -715.17952  1002.8407 -287.66117 -715.17952  1002.8407 381937.903 -359507.12 -22430.786        0.0
                          0.0        0.0 -290.16887 -720.12414 1010.29301 381939.485 -359505.12 -22434.368 429.955273 -1730.4171
                   1300.46187 427.518349 -1718.0202 1290.50187 741445.019 -337076.33 -404368.69 .437455264 -.29301012 -.14444514
                     -.274E-6 -.71658E-6 .104739E-5        0.0    102.605   2.168176   2.092863   8.057142   7.777271      .2691
                         440.    .058521    .018455    .347536    .338204    .879287    .013027    .009708   3663.635   73.27271
                          0.0        0.0        0.0        0.0        0.0
  19000      .019  -128.95183 -822.92949 951.881327 -128.95183 -822.92949 951.881327 407679.498 -318559.43 -89120.071        0.0
                          0.0        0.0 -130.30985 -828.71245 959.022304 407680.557 -318556.98 -89123.572 698.402599 -1787.7348
                   1089.33216  693.97766 -1774.8108 1080.83316 726238.924 -229439.35 -496799.57 .445487158 -.23684678 -.20864038
                   -.13803E-6 -.82508E-6 .101997E-5        0.0    102.605   2.168176   2.092863   8.057142   7.777271      .2691
                         440.    .058521    .018455    .347536    .338204    .879287    .013027    .009708   3663.635   73.27271
                          0.0        0.0        0.0        0.0        0.0
  19500     .0195  32.9324491 -910.41604 877.483593 32.9324491 -910.41604 877.483593  423382.67 -269767.75 -153614.92        0.0
                          0.0        0.0 32.7583852 -916.89542 884.137037  423383.18 -269764.92 -153618.26 949.653808 -1801.0325
                   851.378652 943.348492 -1787.8996 844.551144 693150.415 -116152.82 -576997.59 .442550305 -.17485179 -.26769852
                   .311794E-7 -.91051E-6  .97166E-6        0.0    102.605   2.168176   2.092863   8.057142   7.777271      .2691
                         440.    .058521    .018455    .347536    .338204    .879287    .013027    .009708   3663.635   73.27271
                          0.0        0.0        0.0        0.0        0.0
  20000       .02  194.005984 -975.48522 781.479238 194.005984 -975.48522 781.479238 428660.759 -214333.49 -214327.27        0.0
                          0.0        0.0 195.019848 -982.50128  787.48143 428660.705 -214330.35 -214330.35 1177.52113 -1769.9827
                   592.461582 1169.49121 -1756.9645 587.473254 642994.248 -6.2179625 -642988.03  .42871586  -.1085511 -.32016476
                   .195969E-6 -.10023E-5 .777887E-6        0.0    102.605   2.168176   2.092863   8.057142   7.777271      .2691
                         440.    .058521    .018455    .347536    .338204    .879287    .013027    .009708   3663.635   73.27271
                          0.0        0.0        0.0        0.0        0.0
  20500     .0205  350.301736 -1016.5344 666.232616 350.301736 -1016.5344 666.232616 423383.795 -153621.63 -269762.17        0.0
                          0.0        0.0 352.479074 -1023.9146 671.435516  423383.18 -153618.26 -269764.92 1376.39366 -1695.3501
                   318.956443 1366.83609  -1682.767 315.930879 577005.423 116140.538 -693145.96 .404325257 -.03957765  -.3647476
                   .359646E-6 -.11177E-5 .701111E-6        0.0    102.605   2.168176   2.092863   8.057142   7.777271      .2691
                         440.    .058521    .018455    .347536    .338204    .879287    .013027    .009708   3663.635   73.27271
                          0.0        0.0        0.0        0.0        0.0
  21000      .021  497.972279 -1032.5532 534.580942 497.972279 -1032.5532 534.580942 407681.716 -89127.094 -318554.62        0.0
                          0.0        0.0 501.259259 -1040.1158 538.856581 407680.557 -89123.572 -318556.98  1541.3751 -1578.9724
                   37.5973213  1530.5255 -1567.1342 36.6086636  496808.81 229427.528 -726236.34 .369978541 .030370473 -.40034901
                   .543627E-6 -.10431E-5  .55632E-6        0.0    102.605   2.168176   2.092863   8.057142   7.777271      .2691
[...]
                         440.    .058521    .018455    .347536    .338204    .879287    .013027    .009708   3663.635   73.27271
                          0.0        0.0        0.0        0.0        0.0
 113000      .113  -256795.39 -173335.78 430131.174 -256795.39 -173335.78 430131.174 -256795.39 -173335.78 430131.174        0.0
                          0.0        0.0 -213286.34  -189316.8 402603.141 -251960.44 -174352.02 426312.457 -23969.539 -591919.94
                   615889.481 -83459.608 -603466.96 686926.565 -83459.608 -603466.96 686926.565 78.3638116 -132.16009 53.7962784
                   -.29387E-3 -.18587E-3 .508845E-3        0.0    102.605   2.168176   2.092863   8.057142   7.777271      .2691
                         440.    .058521    .018455    .347536    .338204    .879287    .013027    .009708   3663.635   73.27271
                          0.0        0.0        0.0        0.0        0.0
 113500     .1135   -206523.3 -227330.01 433853.313  -206523.3 -227330.01 433853.313  -206523.3 -227330.01 433853.314        0.0
                          0.0        0.0 -212231.96 -227814.07 440046.036 -194607.89 -233465.35  428073.24  15582.112 -667860.11
                   652277.997 20806.7075 -661183.32 640376.616 20806.7078 -661183.32 640376.616 55.0394744 -118.77902 63.7395461
                   -.23031E-3 -.24209E-3 .472426E-3        0.0    102.605   2.168176   2.092863   8.057142   7.777271      .2691
                         440.    .058521    .018455    .347536    .338204    .879287    .013027    .009708   3663.635   73.27271
                          0.0        0.0        0.0        0.0        0.0
 114000      .114  -135773.81 -288137.34 423911.151 -135773.81 -288137.34 423911.151 -135773.81 -288137.34 423911.151        0.0
                          0.0        0.0 -162972.91 -280723.26 443696.172 -132463.44   -286830.  419293.44 117750.357 -724419.44
                   606669.079 152363.533 -712048.49  559684.96 152363.534 -712048.49  559684.96 223.085933 -162.24326  -60.84267
                   -.13337E-3 -.28467E-3 .505358E-3        0.0    102.605   2.168176   2.092863   8.057142   7.777271      .2691
                         440.    .058521    .018455    .347536    .338204    .879287    .013027    .009708   3663.635   73.27271
                          0.0        0.0        0.0        0.0        0.0
 114500     .1145  -54888.719  -339339.6 394228.324 -54888.719  -339339.6 394228.324 -54888.718  -339339.6 394228.323        0.0
                          0.0        0.0 -44935.219 -348961.47 393896.689 -67057.308 -333131.94 400189.244 304026.252 -742858.16
                   438831.908 284450.886 -733567.93 449117.043 284450.887 -733567.93 449117.042 288.820075 -149.36631 -139.45376
                   -.63613E-4 -.39068E-3  .42519E-3        0.0    102.605   2.168176   2.092863   8.057142   7.777271      .2691
                         440.    .058521    .018455    .347536    .338204    .879287    .013027    .009708   3663.635   73.27271
                          0.0        0.0        0.0        0.0        0.0
 115000      .115  11822.8909 -376042.98 364220.092 11822.8909 -376042.98 364220.092 11822.8911 -376042.98 364220.092        0.0
                          0.0        0.0 20023.4561 -379468.37 359444.911 .127058E-4 -371231.06  371231.06 399491.823 -738913.28
                   339421.455 387865.873 -740263.07 352397.201 387865.874 -740263.07 352397.201   104.2403 -53.873894 -50.366406
                   .131302E-4 -.40491E-3 .400901E-3        0.0    102.605   2.168176   2.092863   8.057142   7.777271      .2691
                         440.    .058521    .018455    .347536    .338204    .879287    .013027    .009708   3663.635   73.27271
                          0.0        0.0        0.0        0.0        0.0
 115500     .1155  40470.3157 -388709.91 348239.596 40470.3157 -388709.91 348239.596  40470.316 -388709.91 348239.596        0.0
                          0.0        0.0 32701.3845 -386821.67 354120.285 67057.3081 -400189.24 333131.936 419523.054 -740941.95
                     321418.9 429180.227 -736949.51  307769.28 429180.228 -736949.51  307769.28  145.57677 -61.804693 -83.772077
                    .48618E-4 -.42306E-3 .381738E-3        0.0    102.605   2.168176   2.092863   8.057142   7.777271      .2691
                         440.    .058521    .018455    .347536    .338204    .879287    .013027    .009708   3663.635   73.27271
                          0.0        0.0        0.0        0.0        0.0
 116000      .116  125674.396 -415739.08 290064.681 125674.396 -415739.08 290064.681 125674.397 -415739.08  290064.68        0.0
                          0.0        0.0 132726.869  -422840.3  290113.43 132463.443 -419293.44 286829.997 555567.169 -712953.73
                   157386.561 541413.473 -705803.76 164390.284 541413.474 -705803.76 164390.283 285.804893  -85.21284 -200.59205
                   .135801E-3 -.45779E-3 .307441E-3        0.0    102.605   2.168176   2.092863   8.057142   7.777271      .2691
                         440.    .058521    .018455    .347536    .338204    .879287    .013027    .009708   3663.635   73.27271
                          0.0        0.0        0.0        0.0        0.0
 116500     .1165  204739.091 -436497.13 231758.042 204739.091 -436497.13 231758.042 204739.091 -436497.13 231758.042        0.0
                          0.0        0.0 217510.472 -441306.62 223796.145 194607.888 -428073.24 233465.353 658817.089 -665102.76
                   6285.67273 641236.224 -668255.17 27018.9508 641236.224 -668255.17 27018.9502  162.68229 -1.4022672 -161.28002
                   .241014E-3 -.46771E-3 .255808E-3        0.0    102.605   2.168176   2.092863   8.057142   7.777271      .2691
                         440.    .058521    .018455    .347536    .338204    .879287    .013027    .009708   3663.635   73.27271
                          0.0        0.0        0.0        0.0        0.0
 117000      .117  263362.458 -429859.52 166497.057 263362.458 -429859.52 166497.057 263362.458 -429859.52 166497.057        0.0
                          0.0        0.0 250021.189 -426517.55  176496.36 251960.441 -426312.46 174352.016 676538.738 -603013.91
                    -73524.83 693221.974 -596356.57 -96865.401 693221.974 -596356.57 -96865.401 31.8269155 65.6956468 -97.522562
                   .315397E-3 -.45964E-3 .202447E-3        0.0    102.605   2.168176   2.092863   8.057142   7.777271      .2691
                         440.    .058521    .018455    .347536    .338204    .879287    .013027    .009708   3663.635   73.27271
                          0.0        0.0        0.0        0.0        0.0
 117500     .1175  302270.296 -413468.53 111198.237 302270.296 -413468.53 111198.237 302270.296 -413468.53 111198.236        0.0
                          0.0        0.0 266544.704  -404701.2   138156.5 303108.891 -414054.45 110945.554 671245.908  -542857.7
                    -128388.2 715738.829 -524666.77 -191072.06 715738.829 -524666.77 -191072.06 124.706099 41.0137878 -165.71989
                   .323308E-3 -.44413E-3 .120819E-3        0.0    102.605   2.168176   2.092863   8.057142   7.777271      .2691
                         440.    .058521    .018455    .347536    .338204    .879287    .013027    .009708   3663.635   73.27271
                          0.0        0.0        0.0        0.0        0.0
 118000      .118  338127.142 -389076.95 50949.8042 338127.142 -389076.95 50949.8042 338127.142 -389076.95 50949.8036        0.0
                          0.0        0.0 335252.011 -391676.08 56424.0728 346793.795 -391601.04 44807.2447 726928.095 -448100.16
                   -278827.94 727204.088 -440026.75 -287177.34 727204.088 -440026.75 -287177.34 262.480859 13.4766983 -275.95756
                   .366472E-3  -.4459E-3 .575669E-4        0.0    102.605   2.168176   2.092863   8.057142   7.777271      .2691
                         440.    .058521    .018455    .347536    .338204    .879287    .013027    .009708   3663.635   73.27271
                          0.0        0.0        0.0        0.0        0.0
 118500     .1185  394466.034 -365464.46 -29001.569 394466.034 -365464.46 -29001.569 394466.034 -365464.46  -29001.57        0.0
                          0.0        0.0 433471.602 -383586.77 -49884.837 381939.485 -359505.12 -22434.368 817058.368 -333701.93
                   -483356.44 759930.498  -336462.9  -423467.6 759930.498 -336462.89  -423467.6 65.7989949 114.347207  -180.1462
                   .429548E-3 -.44442E-3 -.32397E-4        0.0    102.605   2.168176   2.092863   8.057142   7.777271      .2691
                         440.    .058521    .018455    .347536    .338204    .879287    .013027    .009708   3663.635   73.27271
                          0.0        0.0        0.0        0.0        0.0
 119000      .119  399811.115 -316396.14 -83414.976 399811.115 -316396.14 -83414.976 399811.115 -316396.14 -83414.976        0.0
                          0.0        0.0 405909.172 -318078.77 -87830.401 407680.557 -318556.98 -89123.572 723987.943 -230248.37
                   -493739.57 716207.254 -232981.16 -483226.09 716207.253 -232981.16 -483226.09  -73.14692 169.659998 -96.513079
                   .478472E-3 -.36701E-3  -.9694E-4        0.0    102.605   2.168176   2.092863   8.057142   7.777271      .2691
                         440.    .058521    .018455    .347536    .338204    .879287    .013027    .009708   3663.635   73.27271
                          0.0        0.0        0.0        0.0        0.0
 119500     .1195  426359.056 -274500.44 -151858.62 426359.056 -274500.44 -151858.62 426359.057 -274500.44 -151858.62        0.0
                          0.0        0.0 395781.884 -263546.99 -132234.89  423383.18 -269764.92 -153618.26 659328.876  -131312.1
                   -528016.77 700859.495 -122641.82 -578217.67 700859.495 -122641.82 -578217.67 49.7402016 126.062551 -175.80275
                   .465269E-3 -.32389E-3 -.17047E-3        0.0    102.605   2.168176   2.092863   8.057142   7.777271      .2691
                         440.    .058521    .018455    .347536    .338204    .879287    .013027    .009708   3663.635   73.27271
                          0.0        0.0        0.0        0.0        0.0
  % % % % % %   Suspended simulation;  plot data space exhausted;  SPY SPACE is required.   LIMBUF =  840000.
  % % % % % %   Suspended simulation;  plot data space exhausted;  SPY SPACE is required.   LIMBUF =  840000.
  +++  Time-sharing disabled.   Send  user-keyed interrupt to silence alarm.
   Current values.  INDBUF  INDBEG  LIMBUF  MFLUSH  NUMDCD  KCARD1  KCARD2
                    839994      50  840000    1007     230       1     231
Plot timespan now in memory (in sec) = 1.04985997E-01   1.19985000E-01
   ++++  Begin plot-data copy from memory to disk.   MFLUSH, INDBUF, N4, Tbeg,  Tend = 1008  839994       1  -1.00000E+00
1.00000E+19
 120000       .12  442902.043 -221261.76 -221640.29 442902.043 -221261.76 -221640.29 442902.044 -221261.76 -221640.29        0.0
                          0.0        0.0 427413.452 -215499.87 -211913.58 428660.705 -214330.35 -214330.35 642913.322  -3586.287
                   -639327.03 664163.801   378.5284 -664542.33 664163.801 378.529079 -664542.33 67.3747909 136.127942 -203.50273
                   .494466E-3 -.24447E-3 -.25004E-3        0.0    102.605   2.168176   2.092863   8.057142   7.777271      .2691
                         440.    .058521    .018455    .347536    .338204    .879287    .013027    .009708   3663.635   73.27271
                          0.0        0.0        0.0        0.0        0.0

Extrema of output variables follow.   Order and column positioning are the same as for the preceding time-step loop output.
Variable maxima :   482092.45 457363.162 445520.903  482092.45 457363.162 445520.903  528855.86 457363.161 445520.903        0.0
                          0.0        0.0 527977.562 484680.798 493949.763 428660.705 428660.703 428660.703 890443.024 779116.507
                   897459.749 791722.475 759400.084 807116.721 922404.118 760537.649 807116.721 570.862246 295.608823 399.466691
                   .557495E-3 .549869E-3 .539541E-3        0.0    102.605   2.168176   2.092863   8.057142   7.777271      .2691
                         440.    .058521    .018455    .347536    .338204    .879287    .013027    .009708   3663.635   73.27271
                          0.0        0.0        0.0        0.0        0.0
Times of maxima :      .06085     .06701     .07295     .06085     .06701     .07295    .059326     .06701     .07295        0.0
                          0.0        0.0    .079088    .066628    .072655        0.0    .006667    .113333    .079085    .085094
                       .07265    .078713    .084769    .091182    .059325    .064712    .091182    .059289    .081305    .068536
                      .079311    .067013    .073013        0.0        0.0        0.0        0.0        0.0        0.0        0.0
                          0.0        0.0        0.0        0.0        0.0        0.0        0.0        0.0        0.0        0.0
                          0.0        0.0        0.0        0.0        0.0
Variable minima :  -465117.54 -450018.51 -453126.88 -465117.54 -450018.51 -453126.88 -465117.54 -450018.51 -453126.88        0.0
                          0.0        0.0 -529638.86 -468818.79 -476738.49 -428660.71  -428660.7  -428660.7 -908579.08 -776922.73
                   -877819.17 -809997.71  -764101.5 -802089.67 -809997.71  -764101.5 -802089.67 -437.64557 -472.09799 -373.36528
                   -.55678E-3 -.54886E-3 -.54333E-3        0.0    102.605   2.168176   2.092863   8.057142   7.777271      .2691
                         440.    .058521    .018455    .347536    .338204    .879287    .013027    .009708   3663.635   73.27271
                          0.0        0.0        0.0        0.0        0.0
Times of minima :      .08937    .077011    .082953     .08937    .077011    .082953     .08937    .077011    .082953        0.0
                          0.0        0.0    .069011    .077196    .082863        .01    .016667    .103333    .068928    .095149
                      .080855    .068641    .074708    .081188    .068641    .074708    .081188    .066339    .058687    .078654
                      .089461    .077007    .082881        0.0        0.0        0.0        0.0        0.0        0.0        0.0
                          0.0        0.0        0.0        0.0        0.0        0.0        0.0        0.0        0.0        0.0
                          0.0        0.0        0.0        0.0        0.0

Blank card terminating all plot cards.            |BLANK PLOT

Memory storage figures for the preceding, now-completed data case.  -------------------------------  Present   Program
A value of  "-9999"  indicates that no figure is available.         28-Feb-22  19:35:26              figure     limit  (name)
     Size List 1.   Number of electric network nodes.                                                   37      6000  (LBUS)
     Size List 2.   Number of electric network branches.                                                39     10000  (LBRNCH)
     Size List 3.   Number of data values in R, L, C tables.                                            45    192000  (LDATA)
     Size List 4.   Number of electric network sources.                                                  3       900  (LEXCT)
     Size List 5.   Storage for [Y] and triangularized [Y].   No. times =    3     Factors =    66     189    420000  (LYMAT)
     Size List 6.   Number of entries in switch table.                  No. flops = 18                  21      1200  (LSWTCH)
     Size List 7.   Number of distinct ALPHANUMERIC data names plus program SPY variables.              25     15000  (LSIZE7)
     Size List 8.   History points of distributed lines.                                              1308    120000  (LPAST)
     Size List 9.   Number of nonlinear elements.                                                        0      2250  (LNONL)
     Size List 10.  Points of nonlinear characteristics.                                                 0      3800  (LCHAR)
     Size List 11.  Number of Type-59 S.M. outputs.                                                      0       720  (LSMOUT)
     Size List 12.  Total number of EMTP output variables.                                              55      2000  (LSIZ12)
     Size List 13.  Working space for batch/SPY plotting.                                            -9999     72800  (LSIZ13)
     Size List 14.  S.M./U.M. connections to TACS.                                                   -9999       510  (LBSTAC)
     Size List 15.  Character storage in bytes for MODELS.                                            3297     90000  (LCTACS)
     Size List 16.  Total number of Type-59 S.M. masses.                                                 0       800  (LIMASS)
     Size List 17.  Number of Type-59 Synchronous machines.                                              0        90  (LSYN)
     Size List 18.  Branch and switch power/energy outputs.                                              0       254  (MAXPE)
     Size List 19.  Total floating-point TACS table space.                                              23    120000  (LTACST)
     Size List 20.  Non-copied recursive convolution data.                                               0    100000  (LFSEM)
     Size List 21.  Total modal/phase [T] matrix storage.                                                9      3000  (LFD)
     Size List 22.  Total recursive convolution history.                                                 0     15000  (LHIST)
     Size List 23.  Giant vectors for renumbering, phasors;  also extrema accumulation.                  93    192000  (LSIZ23)
     Size List 24.  Peak phases of compensation for data.                                                0       120  (LCOMP)
     Size List 25.  Total table space for all U.M usage.                                             -9999     45000  (LSPCUM)
     Size List 26.  Square of max number of coupled phases.                                              9    260000  (LSIZ26)
     Size List 27.  Maximum number of MODELS top variables.                                             44       600  (LSIZ27)
     Size List 28.  MODELS.  Total work space is divided into INTEGER and REAL.  1st, REAL:           1780    210000  (LRTACS)
                             Second  and last,  statistics for INTEGER work space.                    6838         0  (LITACS)
     Size List 29.  RAM disk used by "TAPSAV" table saving (limit is "LABCOM" size LTLABL).          -9999       600  (LSIZ29)
     Size List 30.  Taku Noda frequency-dependent circuits.                                              0        19  (LSIZ30)
Timing figures characterizing central processor (CP) solution speed.  ----------------------------   CP sec  Wait sec  Real sec
     Data input time (through blank card ending branches) ....                                       0.016     0.000     0.016
     Node renumbering and phasor solution  ....                                                      0.016     0.000     0.016
     After phasor solution, but before time-step loop  ....                                          0.000     0.000     0.000
     Integration of equations (time-step loop)  ....                                                 1.156     0.000     1.156
     Plotting or STATISTICS termination overlays ....                                                0.000     0.000     0.000
                                                                                                    ---------------------------
                                                                                          Totals      1.188     0.000     1.188

