   ---   236   cards of disk file read into card cache cells  1   onward.
 Comment card is ignored.      |C   LBUS  LBRNCH   LDATA   LEXCT   LYMAT  LSWTCH
 Limit CIDEAL cards =   200    |CARDS        200 { Limit of CIDEAL will be 2 mor
 1st card (Lists  1-10).       |    6000   10000  192000     900  420000    120
 Comment card is ignored.      |C LSMOUT  LSIZ12  LSIZ13  LBSTAC  LCTACS  LIMASS
 2nd card (Lists 11-20).       |     720    2000   72800     510   90000     80
 Comment card is ignored.      |C    LFD   LHIST  LSIZ23   NCOMP  LSPCUM  LSIZ26
 3rd card (Lists 21-30).       |    3000   15000  192000     120   45000  26000
 4th card (Lists 31-32).       |     200     300     { Optional card for Lists
 Comment card is ignored.      |C  LWORK  LMARTI
 Supplemental offsets.         |  840000     742
 <===> Done with  "/"-card sorting by data class.    Remember that the source file appears different from interpreted input data.
Alternative Transients Program (ATP),  GNU Linux or DOS.  All rights reserved by Can/Am user group of Portland, Oregon, USA.
 Date (dd-mth-yy) and time of day (hh.mm.ss) = 28-Feb-22  20:08:30   Name of disk plot file is  p\bdfinalisima\energizacion2518.pl4
Consult the 860-page ATP Rule Book of the Can/Am EMTP User Group in Portland,  Oregon, USA.  Source code date is 12 August 2008.
Total size of LABCOM tables = 10913436 INTEGER words.  31 VARDIM  List Sizes follow:  6002  10K  192K  900  420K  1200  15K
  120K  2250  3800  720  2K  72800  510  90K  800  90  254  120K  100K  3K  15K  192K  120  45K  260K  600  210K  1100  60  200
--------------------------------------------------+--------------------------------------------------------------------------------
Descriptive interpretation of input data cards.   |  Input data card images are shown below, all 80 columns, character by character
                                                  0         1         2         3         4         5         6         7         8
                                                  012345678901234567890123456789012345678901234567890123456789012345678901234567890
--------------------------------------------------+--------------------------------------------------------------------------------
Comment card.   NUMDCD = 1.                       |C data:D:\ATP\BDFINALISIMA\ENERGIZACION2518.ATP
Marker card preceding new EMTP data case.         |BEGIN NEW DATA CASE
Comment card.   NUMDCD = 3.                       |C --------------------------------------------------------
Comment card.   NUMDCD = 4.                       |C Generated by ATPDRAW  febrero, lunes 28, 2022
Comment card.   NUMDCD = 5.                       |C A Bonneville Power Administration program
Comment card.   NUMDCD = 6.                       |C by H. K. Høidalen at SEfAS/NTNU - NORWAY 1994-2016
Comment card.   NUMDCD = 7.                       |C --------------------------------------------------------
Comment card.   NUMDCD = 8.                       |C  dT  >< Tmax >< Xopt >< Copt ><Epsiln>
Misc. data.     1.000E-06   1.200E-01   5.000E+01 |   1.E-6     .12     50.
Misc. data.    500    1  0  1  1  0  0  0  0  0   |     500       1       0       1       1       0       0       0       0
  ///  Warning.  Nonzero XOPT or COPT differs from the power frequency of  6.00000000E+01  Hz.   Did the user really want this?
No TACS data,  but MODELS data begins (next).     |MODELS
      Another ordinary MODELS data card.          |OUTPUT
      Another ordinary MODELS data card.          |  AnVol
      Another ordinary MODELS data card.          |  LONG
      Another ordinary MODELS data card.          |  R0F
      Another ordinary MODELS data card.          |  R1F
      Another ordinary MODELS data card.          |  X0F
      Another ordinary MODELS data card.          |  X1F
      Another ordinary MODELS data card.          |  RDIVX
      Another ordinary MODELS data card.          |  RINSER
      Another ordinary MODELS data card.          |  CLOSE1
      Another ordinary MODELS data card.          |  RPpos
      Another ordinary MODELS data card.          |  RPcero
      Another ordinary MODELS data card.          |  LPpos
      Another ordinary MODELS data card.          |  LPcero
      Another ordinary MODELS data card.          |  CPpos
      Another ordinary MODELS data card.          |  CPcero
      Another ordinary MODELS data card.          |  Xp
      Another ordinary MODELS data card.          |  CR
      Another ordinary MODELS data card.          |  SIMET
      Another ordinary MODELS data card.          |  ENC1
      Another ordinary MODELS data card.          |  ENC2
      Another ordinary MODELS data card.          |  ENC1AS
      Another ordinary MODELS data card.          |  ENC2AS
      Another ordinary MODELS data card.          |MODEL DEFAULT
      Another ordinary MODELS data card.          |DATA AnVol,LONG,R0F,R1F,X0F,X1F,RDIVX,RINSER,CLOSE1,RPpos,RPcero,LPpos,LPcero
      Another ordinary MODELS data card.          |OUTPUT o1,o2,o3, o4, o5, o6, o7, o8, o9, o10, o11, o12, o13
      Another ordinary MODELS data card.          |VAR o1,o2,o3, o4, o5, o6, o7, o8, o9, o10, o11, o12, o13
      Another ordinary MODELS data card.          |INIT
      Another ordinary MODELS data card.          |  o1:=AnVol
      Another ordinary MODELS data card.          |  o2:=LONG
      Another ordinary MODELS data card.          |  o3:=R0F
      Another ordinary MODELS data card.          |  o4:=R1F
      Another ordinary MODELS data card.          |  o5:=X0F
      Another ordinary MODELS data card.          |  O6:=X1F
      Another ordinary MODELS data card.          |  o7:=RDIVX
      Another ordinary MODELS data card.          |  o8:=RINSER
      Another ordinary MODELS data card.          |  o9:=CLOSE1
      Another ordinary MODELS data card.          |  o10:=RPpos
      Another ordinary MODELS data card.          |  o11:=RPcero
      Another ordinary MODELS data card.          |  o12:=LPpos
      Another ordinary MODELS data card.          |  o13:=LPcero
      Another ordinary MODELS data card.          |
      Another ordinary MODELS data card.          |ENDINIT
      Another ordinary MODELS data card.          |EXEC
      Another ordinary MODELS data card.          |ENDEXEC
      Another ordinary MODELS data card.          |ENDMODEL
      Another ordinary MODELS data card.          |MODEL DEFAULT1
      Another ordinary MODELS data card.          |DATA CPpos,CPcero,Xp,CR,SIMET,ENC1,ENC2,ENC1AS,ENC2AS
      Another ordinary MODELS data card.          |OUTPUT o1, o2, o3, o4, o5, o6, o7, o8, o9
      Another ordinary MODELS data card.          |VAR o1, o2, o3, o4, o5, o6, o7, o8, o9
      Another ordinary MODELS data card.          |INIT
      Another ordinary MODELS data card.          |  o1:=CPpos
      Another ordinary MODELS data card.          |  o2:=CPcero
      Another ordinary MODELS data card.          |  o3:=Xp
      Another ordinary MODELS data card.          |  o4:=CR
      Another ordinary MODELS data card.          |  o5:=SIMET
      Another ordinary MODELS data card.          |  o6:=ENC1
      Another ordinary MODELS data card.          |  o7:=ENC2
      Another ordinary MODELS data card.          |  o8:=ENC1AS
      Another ordinary MODELS data card.          |  o9:=ENC2AS
      Another ordinary MODELS data card.          |
      Another ordinary MODELS data card.          |ENDINIT
      Another ordinary MODELS data card.          |EXEC
      Another ordinary MODELS data card.          |ENDEXEC
      Another ordinary MODELS data card.          |ENDMODEL
      Another ordinary MODELS data card.          |USE DEFAULT AS DEFAULT
      Another ordinary MODELS data card.          |DATA
      Another ordinary MODELS data card.          |  AnVol:=      0.0
      Another ordinary MODELS data card.          |  LONG:= 428.5351
      Another ordinary MODELS data card.          |  R0F:= 1.577103
      Another ordinary MODELS data card.          |  R1F:= 1.301153
      Another ordinary MODELS data card.          |  X0F:= 9.000992
      Another ordinary MODELS data card.          |  X1F:= 7.426066
      Another ordinary MODELS data card.          |  RDIVX:= 0.175214
      Another ordinary MODELS data card.          |  RINSER:=     380.
      Another ordinary MODELS data card.          |  CLOSE1:= 0.043546
      Another ordinary MODELS data card.          |  RPpos:= 0.030658
      Another ordinary MODELS data card.          |  RPcero:= 0.258862
      Another ordinary MODELS data card.          |  LPpos:= 0.340939
      Another ordinary MODELS data card.          |  LPcero:= 1.392396
      Another ordinary MODELS data card.          |OUTPUT
      Another ordinary MODELS data card.          |  AnVol:=o1
      Another ordinary MODELS data card.          |  LONG:=o2
      Another ordinary MODELS data card.          |  R0F:=o3
      Another ordinary MODELS data card.          |  R1F:=o4
      Another ordinary MODELS data card.          |  X0F:=o5
      Another ordinary MODELS data card.          |  X1F:=o6
      Another ordinary MODELS data card.          |  RDIVX:=o7
      Another ordinary MODELS data card.          |  RINSER:=o8
      Another ordinary MODELS data card.          |  CLOSE1:=o9
      Another ordinary MODELS data card.          |  RPpos:=o10
      Another ordinary MODELS data card.          |  RPcero:=o11
      Another ordinary MODELS data card.          |  LPpos:=o12
      Another ordinary MODELS data card.          |  LPcero:=o13
      Another ordinary MODELS data card.          |ENDUSE
      Another ordinary MODELS data card.          |USE DEFAULT1 AS DEF
      Another ordinary MODELS data card.          |DATA
      Another ordinary MODELS data card.          |  CPpos:=  0.01673
      Another ordinary MODELS data card.          |  CPcero:= 0.005396
      Another ordinary MODELS data card.          |  Xp:= 683.0712
      Another ordinary MODELS data card.          |  CR:= 13.66142
      Another ordinary MODELS data card.          |  SIMET:=      0.0
      Another ordinary MODELS data card.          |  ENC1:=      0.0
      Another ordinary MODELS data card.          |  ENC2:=      0.0
      Another ordinary MODELS data card.          |  ENC1AS:=       1.
      Another ordinary MODELS data card.          |  ENC2AS:=      0.0
      Another ordinary MODELS data card.          |OUTPUT
      Another ordinary MODELS data card.          |  CPpos:=o1
      Another ordinary MODELS data card.          |  CPcero:=o2
      Another ordinary MODELS data card.          |  Xp:=o3
      Another ordinary MODELS data card.          |  CR:=o4
      Another ordinary MODELS data card.          |  SIMET:=o5
      Another ordinary MODELS data card.          |  ENC1:=o6
      Another ordinary MODELS data card.          |  ENC2:=o7
      Another ordinary MODELS data card.          |  ENC1AS:=o8
      Another ordinary MODELS data card.          |  ENC2AS:=o9
      Another ordinary MODELS data card.          |ENDUSE
      Another ordinary MODELS data card.          |RECORD
      Another ordinary MODELS data card.          |  DEFAULT.o1 AS AnVOL
      Another ordinary MODELS data card.          |  DEFAULT.o2 AS LONG
      Another ordinary MODELS data card.          |  DEFAULT.o3 AS R0F
      Another ordinary MODELS data card.          |  DEFAULT.o4 AS R1F
      Another ordinary MODELS data card.          |  DEFAULT.o5 AS X0F
      Another ordinary MODELS data card.          |  DEFAULT.o6 AS X1F
      Another ordinary MODELS data card.          |  DEFAULT.o7 AS RDIVX
      Another ordinary MODELS data card.          |  DEFAULT.o8 AS RINSER
      Another ordinary MODELS data card.          |  DEFAULT.o9 AS CLOSE1
      Another ordinary MODELS data card.          |  DEFAULT.o10 AS RPpos
      Another ordinary MODELS data card.          |  DEFAULT.o11 AS RPcero
      Another ordinary MODELS data card.          |  DEFAULT.o12 AS LPpos
      Another ordinary MODELS data card.          |  DEFAULT.o13 AS LPcero
      Another ordinary MODELS data card.          |  DEF.o1 AS CPpos
      Another ordinary MODELS data card.          |  DEF.o2 AS CPcero
      Another ordinary MODELS data card.          |  DEF.o3 AS Xp
      Another ordinary MODELS data card.          |  DEF.o4 AS CR
      Another ordinary MODELS data card.          |  DEF.o5 AS SIMET
      Another ordinary MODELS data card.          |  DEF.o6 AS ENC1
      Another ordinary MODELS data card.          |  DEF.o7 AS ENC2
      Another ordinary MODELS data card.          |  DEF.o8 AS ENC1AS
      Another ordinary MODELS data card.          |  DEF.o9 AS ENC2AS
Termination of data for Laurent Dube`s MODELS.    |ENDMODELS
Comment card.   NUMDCD = 153.                     |C        1         2         3         4         5         6         7         8
Comment card.   NUMDCD = 154.                     |C 345678901234567890123456789012345678901234567890123456789012345678901234567890
Optional blank card follows last of MODELS data.  |BLANK MODELS
Comment card.   NUMDCD = 156.                     |C < n1 >< n2 ><ref1><ref2>< R  >< L  >< C  >
Comment card.   NUMDCD = 157.                     |C < n1 >< n2 ><ref1><ref2>< R  >< A  >< B  ><Leng><><>0
1st of coupled R-L.   1.57710E+00  2.86510E-02    |51IFUENASB1A              1.57719.0009921022
2nd coil. 1.301E+00 2.364E-02 0.000E+00 0.000E+00 |52IFUENBSB1B              1.30127.4260658249
Zca, Zcc= 9.197E-02 1.671E-03 1.393E+00 2.531E-02 |53IFUENCSB1C
Series R-L-C.   1.000E+09  0.000E+00  0.000E+00   |  SB1A                      1.E9                                               0
Series R-L-C.   1.000E+09  0.000E+00  0.000E+00   |  SB1B                      1.E9                                               0
Series R-L-C.   1.000E+09  0.000E+00  0.000E+00   |  SB1C                      1.E9                                               0
Series R-L-C.   1.366E+01  2.174E+00  0.000E+00   |  RSNSHA                  13.661683.07                                         0
Series R-L-C.   1.366E+01  2.174E+00  0.000E+00   |  RSNSHB                  13.661683.07                                         0
Series R-L-C.   1.366E+01  2.174E+00  0.000E+00   |  RSNSHC                  13.661683.07                                         0
Series R-L-C.   1.000E+09  0.000E+00  0.000E+00   |  RSNNHA                    1.E9                                               0
Series R-L-C.   1.000E+09  0.000E+00  0.000E+00   |  RSNNHB                    1.E9                                               0
Series R-L-C.   1.000E+09  0.000E+00  0.000E+00   |  RSNNHC                    1.E9                                               0
Series R-L-C.   1.000E+09  0.000E+00  0.000E+00   |  SE2A                      1.E9                                               0
Series R-L-C.   1.000E+09  0.000E+00  0.000E+00   |  SE2B                      1.E9                                               0
Series R-L-C.   1.000E+09  0.000E+00  0.000E+00   |  SE2C                      1.E9                                               0
Series R-L-C.   2.500E+02  0.000E+00  3.000E-10   |  X0001B                    250.       .0003                                   0
Series R-L-C.   2.500E+02  0.000E+00  3.000E-10   |  X0002B                    250.       .0003                                   0
Series R-L-C.   1.000E-06  0.000E+00  0.000E+00   |  X0001ALN1A               1.E-6                                               0
Series R-L-C.   1.000E-06  0.000E+00  0.000E+00   |  SB1A  X0002A             1.E-6                                               0
Series R-L-C.   1.000E-06  0.000E+00  0.000E+00   |  X0001BLN1B               1.E-6                                               0
Series R-L-C.   1.000E-06  0.000E+00  0.000E+00   |  SB1B  X0002B             1.E-6                                               0
Series R-L-C.   1.000E-06  0.000E+00  0.000E+00   |  X0001CLN1C               1.E-6                                               0
Series R-L-C.   1.000E-06  0.000E+00  0.000E+00   |  SB1C  X0002C             1.E-6                                               0
Series R-L-C.   3.800E+02  0.000E+00  0.000E+00   |  XX0005X0002A              380.                                               0
Series R-L-C.   3.800E+02  0.000E+00  0.000E+00   |  XX0003X0002B              380.                                               0
Series R-L-C.   3.800E+02  0.000E+00  0.000E+00   |  XX0004X0002C              380.                                               0
Series R-L-C.   2.500E+02  0.000E+00  3.000E-10   |  X0001A                    250.       .0003                                   0
Series R-L-C.   1.000E+06  0.000E+00  0.000E+00   |  X0001AX0002A              1.E6                                               0
Series R-L-C.   1.000E+06  0.000E+00  0.000E+00   |  X0001BX0002B              1.E6                                               0
Series R-L-C.   1.000E+06  0.000E+00  0.000E+00   |  X0001CX0002C              1.E6                                               0
Series R-L-C.   2.500E+02  0.000E+00  3.000E-10   |  X0002C                    250.       .0003                                   0
Series R-L-C.   2.500E+02  0.000E+00  3.000E-10   |  X0002A                    250.       .0003                                   0
Series R-L-C.   2.500E+02  0.000E+00  3.000E-10   |  X0001C                    250.       .0003                                   0
Series R-L-C.   1.250E+02  0.000E+00  6.000E-10   |  X0001AX0002A              125.       .0006                                   0
Series R-L-C.   1.250E+02  0.000E+00  6.000E-10   |  X0001BX0002B              125.       .0006                                   0
Series R-L-C.   1.250E+02  0.000E+00  6.000E-10   |  X0001CX0002C              125.       .0006                                   0
 2.589E-01 1.392E+00 5.400E-03 9.060E+02 2.097E-03|-1LN1A  VFF2A             .258861.3924 .0054428.54 0 0                         0
 3.066E-02 3.409E-01 1.673E-02 2.547E+02 1.826E-03|-2LN1B  VFF2B             .03066.34094.01673428.54 0 0                         0
3rd or later transposed distributed phase.        |-3LN1C  VFF2C                                                                  0
Blank card ending branches.  IBR, NTOT = 39  31   |BLANK BRANCH
Comment card.   NUMDCD = 198.                     |C < n 1>< n 2>< Tclose ><Top/Tde ><   Ie   ><Vf/CLOP ><  type  >
Switch.  -1.00E+00  1.00E+01  0.00E+00  0.00E+00  |  LN1A  COMPA        -1.       10.                                             0
Switch.  -1.00E+00  1.00E+01  0.00E+00  0.00E+00  |  LN1B  COMPB        -1.       10.                                             0
Switch.  -1.00E+00  1.00E+01  0.00E+00  0.00E+00  |  LN1C  COMPC        -1.       10.                                             0
Switch.  -1.00E+00  1.00E+01  0.00E+00  0.00E+00  |  VFF2A RSNNHA       -1.       10.                                             0
Switch.  -1.00E+00  1.00E+01  0.00E+00  0.00E+00  |  VFF2B RSNNHB       -1.       10.                                             0
Switch.  -1.00E+00  1.00E+01  0.00E+00  0.00E+00  |  VFF2C RSNNHC       -1.       10.                                             0
Switch.   2.00E+00 -1.00E+00  0.00E+00  0.00E+00  |  VFF2A SE2A          2.       -1.                                             0
Switch.   2.00E+00 -1.00E+00  0.00E+00  0.00E+00  |  VFF2B SE2B          2.       -1.                                             0
Switch.   2.00E+00 -1.00E+00  0.00E+00  0.00E+00  |  VFF2C SE2C          2.       -1.                                             0
Switch.   4.35E-02  1.00E+03  0.00E+00  0.00E+00  |  X0001BXX0003.043545964      1.E3                                             0
Switch.   4.35E-02  1.00E+03  0.00E+00  0.00E+00  |  X0001CXX0004.043545964      1.E3                                             0
Switch.   5.10E-02  1.00E+03  0.00E+00  0.00E+00  |  XX0005X0002A.051045964      1.E3                                             0
Switch.   5.10E-02  1.00E+03  0.00E+00  0.00E+00  |  XX0003X0002B.051045964      1.E3                                             0
Switch.   5.10E-02  1.00E+03  0.00E+00  0.00E+00  |  XX0004X0002C.051045964      1.E3                                             0
Switch.   4.35E-02  1.00E+03  0.00E+00  0.00E+00  |  X0001AXX0005.043545964      1.E3                                             0
Permanently-closed switch used for metering.      |  VFUENAIFUENA                                        MEASURING                1
Permanently-closed switch used for metering.      |  VFUENBIFUENB                                        MEASURING                1
Permanently-closed switch used for metering.      |  VFUENCIFUENC                                        MEASURING                1
Permanently-closed switch used for metering.      |  COMPA RSNSHA                                        MEASURING                1
Permanently-closed switch used for metering.      |  COMPB RSNSHB                                        MEASURING                1
Permanently-closed switch used for metering.      |  COMPC RSNSHC                                        MEASURING                1
Blank card ending switches.   KSWTCH = 21.        |BLANK SWITCH
Comment card.   NUMDCD = 221.                     |C < n 1><>< Ampl.  >< Freq.  ><Phase/T0><   A1   ><   T1   >< TSTART >< TSTOP  >
Source.   4.29E+05  5.00E+01  0.00E+00 -1.00E+00  |14VFUENA  428660.705       50.                                     -1.      100.
Source.   4.29E+05  5.00E+01 -1.20E+02 -1.00E+00  |14VFUENB  428660.705       50.     -120.                           -1.      100.
Source.   4.29E+05  5.00E+01 -2.40E+02 -1.00E+00  |14VFUENC  428660.705       50.     -240.                           -1.      100.
Blank card ends electric sources.  KCONST = 3     |BLANK SOURCE
Pi-equivalent branches of distributed circuits are added to the table of List Size 3 between indices  40   and  45.

Sinusoidal steady-state phasor solution, branch by branch.   All flows are away from a bus,  and the real part,  magnitude,  or  "P"
is printed above the imaginary part,  the angle,  or  "Q".   The first solution frequency  =  5.00000000E+01  Hertz.
  Bus K                        Phasor  node  voltage              Phasor  branch  current               Power flow       Power loss
             Bus M         Rectangular            Polar          Rectangular            Polar            P  and  Q        P  and  Q

 IFUENA                    428660.705       428660.705      .42890875165028  .44580562648823       91928.16393154  .12930197238954
                                  0.0              0.0       .1215727739519       15.8252070      -26056.73549551        0.7379380

            SB1A      428661.04971135  428661.04972439      -.4289087516503  .44580562648823      -91928.03462957
                      -3.343295116097       -0.0004469      -.1215727739519     -164.1747930       26057.47343354

 IFUENB                  -214330.3525       428660.705      -.1091692651768  .44580562649092      91928.163932212  .12930197239105
                      -371231.0601341     -120.0000000      -.4322322618127     -104.1747930      -26056.73549526        0.7379380

            SB1B      -214333.4202342  428661.04972439      .10916926517685  .44580562649092      -91928.03463024
                      -371229.6870154     -120.0004469      .43223226181269       75.8252070      26057.473433284

 IFUENC                  -214330.3525       428660.705      -.3197394864731  .44580562648764      91928.163931629  .12930197238922
                      371231.06013415      120.0000000      .31065948786084      135.8252070      -26056.73549474        0.7379380

            SB1C      -214327.6294772  428661.04972439      .31973948647309  .44580562648764      -91928.03462966
                      371233.03031049      119.9995531      -.3106594878608      -44.1747930      26057.473432761

 SB1A                 428661.04971135  428661.04972439      .42866104971E-3  .42866104972E-3      91.875147775409  91.875147775409
                      -3.343295116097       -0.0004469      -.3343295116E-8       -0.0004469      -.104290932E-19        0.0000000

            TERRA                 0.0              0.0      -.4286610497E-3  .42866104972E-3                  0.0
                                  0.0              0.0      .33432951161E-8      179.9995531                  0.0

 SB1B                 -214333.4202342  428661.04972439      -.2143334202E-3  .42866104972E-3      91.875147775409  91.875147775409
                      -371229.6870154     -120.0004469       -.371229687E-3     -120.0004469      .6730727087E-15        0.0000000

            TERRA                 0.0              0.0      .21433342023E-3  .42866104972E-3                  0.0
                                  0.0              0.0      .37122968702E-3       59.9995531                  0.0

 SB1C                 -214327.6294772  428661.04972439      -.2143276295E-3  .42866104972E-3      91.875147775409  91.875147775409
                      371233.03031049      119.9995531      .37123303031E-3      119.9995531      .1356553758E-14        0.0000000

            TERRA                 0.0              0.0      .21432762948E-3  .42866104972E-3                  0.0
                                  0.0              0.0      -.3712330303E-3      -60.0004469                  0.0

 RSNSHA               98.336453425678  405.69664272027      -.5731113311556  .59381254113626      2.4085253779601  2.4085253779601
                      -393.5984093491      -75.9724087      -.1554243742524     -164.8266794      120.42979503134      120.4297950

            TERRA                 0.0              0.0       .5731113311556  .59381254113626                  0.0
                                  0.0              0.0      .15542437425241       15.1733206                  0.0

 RSNSHB               -390.0344480983  405.69664272027      .15195420910791  .59381254113626      2.4085253779601  2.4085253779601
                      111.63733788986      164.0275913      .57404115910367       75.1733206      120.42979503134      120.4297950

            TERRA                 0.0              0.0      -.1519542091079  .59381254113626                  0.0
                                  0.0              0.0      -.5740411591037     -104.8266794                  0.0

 RSNSHC               291.69799467265  405.69664272027      .42115712204769  .59381254113626      2.4085253779601  2.4085253779601
                      281.96107145926       44.0275913      -.4186167848513      -44.8266794      120.42979503134      120.4297950

            TERRA                 0.0              0.0      -.4211571220477  .59381254113626                  0.0
                                  0.0              0.0      .41861678485126      135.1733206                  0.0

 RSNNHA               109.24081226661  482.96571422624      .10924081227E-6  .48296571423E-6      .11662794056E-3  .11662794056E-3
                      -470.4490685009      -76.9272822      -.4704490685E-6      -76.9272822      .1852884572E-20        0.0000000

            TERRA                 0.0              0.0      -.1092408123E-6  .48296571423E-6                  0.0
                                  0.0              0.0       .4704490685E-6      103.0727178                  0.0

 RSNNHB               -462.0412506418  482.96571422624      -.4620412506E-6  .48296571423E-6      .11662794056E-3  .11662794056E-3
                      140.61921569754      163.0727178       .1406192157E-6      163.0727178      -.645200878E-21        0.0000000

            TERRA                 0.0              0.0      .46204125064E-6  .48296571423E-6                  0.0
                                  0.0              0.0      -.1406192157E-6      -16.9272822                  0.0

 RSNNHC               352.80043837523  482.96571422624      .35280043838E-6  .48296571423E-6      .11662794056E-3  .11662794056E-3
                      329.82985280339       43.0727178       .3298298528E-6       43.0727178      .6385834329E-21        0.0000000

            TERRA                 0.0              0.0      -.3528004384E-6  .48296571423E-6                  0.0
                                  0.0              0.0      -.3298298528E-6     -136.9272822                  0.0

 X0001B               -390.0344482423  405.69664274538      -.1052243731E-4  .38236007762E-4       .1827490362E-6   .1827490362E-6
                      111.63733747822      164.0275914      -.3675963279E-4     -105.9737586      -.0077561099884       -0.0077561

            TERRA                 0.0              0.0      .10522437307E-4  .38236007762E-4                  0.0
                                  0.0              0.0      .36759632788E-4       74.0262414                  0.0

 X0002B               -214333.4202341  428661.04972396      .03498709774433  .04040035212957      .20402355652423  .20402355652423
                      -371229.6870149     -120.0004469      -.0202012733169      -30.0017969      -8659.028674137    -8659.0286741

            TERRA                 0.0              0.0      -.0349870977443  .04040035212957                  0.0
                                  0.0              0.0      .02020127331685      149.9982031                  0.0

 X0001A               98.336453854132  405.69664274538      .42845395853419  .43607367420592      5.0934807215171  .95080124668E-7
                       -393.598409268      -75.9724086      .08116313665596       10.7265855      -88.31004578302              0.0

            LN1A      98.336453425678  405.69664272027      -.4284539585342  .43607367420592      -5.093480626437
                      -393.5984093491      -75.9724087       -.081163136656     -169.2734145      88.310045783021

 SB1A                 428661.04971135  428661.04972439      .42846659198403  .44538024271103      91833.266316225  .99181782787E-7
                      -3.343295116097       -0.0004469      .12157277717861       15.8407191      -26057.47338599              0.0

            X0002A    428661.04971093  428661.04972396       -.428466591984  .44538024271103      -91833.26631613
                       -3.34329523767       -0.0004469      -.1215727771786     -164.1592809      26057.473385987

 X0001B               -390.0344482423  405.69664274538      -.1439375978407  .43607365805577      5.0934724018258  .95080117626E-7
                      111.63733747822      164.0275914      -.4116335787785     -109.2734092       -88.3100429814        0.0000000

            LN1B      -390.0344480983  405.69664272027       .1439375978407  .43607365805577      -5.093472306746
                      111.63733788986      164.0275913      .41163357877849       70.7265908      88.310042981402

 SB1B                 -214333.4202342  428661.04972439        -.10896474123  .44537779173703      91833.796196311  .99180681445E-7
                      -371229.6870154     -120.0004469       -.431842636317     -104.1615574      -26053.68123112              0.0

            X0002B    -214333.4202341  428661.04972396      .10896474123001  .44537779173703      -91833.79619621
                      -371229.6870149     -120.0004469      .43184263631701       75.8384426      26053.681231121

 X0001C               291.69799438813  405.69664274538      -.2845163180609  .43607369462589      5.0934843602227  .95080133575E-7
                      281.96107178973       44.0275914      .33047047054424      130.7265833      -88.31004972219              0.0

            LN1C      291.69799467265  405.69664272027      .28451631806092  .43607369462589      -5.093484265143
                      281.96107145926       44.0275913      -.3304704705442      -49.2734167      88.310049722192

 SB1C                 -214327.6294772  428661.04972439      -.3195309545845  .44540908049981      91839.896241442  .99194622294E-7
                      371233.03031049      119.9995531      .31030504032969      135.8392155      -26056.75041986        0.0000000

            X0002C    -214327.6294769  428661.04972396      .31953095458448  .44540908049981      -91839.89624134
                      371233.03031018      119.9995531      -.3103050403297      -44.1607845      26056.750419859

 XX0005               428661.04971093  428661.04972396                  0.0              0.0                  0.0              0.0
                       -3.34329523767       -0.0004469                  0.0              0.0                  0.0              0.0

            X0002A    428661.04971093  428661.04972396                  0.0              0.0                  0.0
                       -3.34329523767       -0.0004469                  0.0              0.0                  0.0

 XX0003               -214333.4202341  428661.04972396                  0.0              0.0                  0.0              0.0
                      -371229.6870149     -120.0004469                  0.0              0.0                  0.0              0.0

            X0002B    -214333.4202341  428661.04972396                  0.0              0.0                  0.0
                      -371229.6870149     -120.0004469                  0.0              0.0                  0.0

 XX0004               -214327.6294769  428661.04972396                  0.0              0.0                  0.0              0.0
                      371233.03031018      119.9995531                  0.0              0.0                  0.0              0.0

            X0002C    -214327.6294769  428661.04972396                  0.0              0.0                  0.0
                      371233.03031018      119.9995531                  0.0              0.0                  0.0

 X0001A               98.336453854132  405.69664274538      .37095994482E-4  .38236007762E-4       .1827490362E-6   .1827490362E-6
                       -393.598409268      -75.9724086      .92671183765E-5       14.0262414      -.0077561099884       -0.0077561

            TERRA                 0.0              0.0      -.3709599448E-4  .38236007762E-4                  0.0
                                  0.0              0.0      -.9267118376E-5     -165.9737586                  0.0

 X0001A               98.336453854132  405.69664274538      -.4285627132571  .42856289094288      -20.99486684186  91833.075746659
                       -393.598409268      -75.9724086       -.390255114E-3     -179.9478257      84.359989256778        0.0000000

            X0002A    428661.04971093  428661.04972396      .42856271325707  .42856289094288        91854.0706135
                       -3.34329523767       -0.0004469      .39025511403E-3        0.0521743      -84.35998925678

 X0001B               -390.0344482423  405.69664274538      .21394338578583  .42856289094288      -20.99486684186  91833.075746659
                      111.63733747822      164.0275914      .37134132435243       60.0521743      84.359989256778        0.0000000

            X0002B    -214333.4202341  428661.04972396      -.2139433857858  .42856289094288        91854.0706135
                      -371229.6870149     -120.0004469      -.3713413243524     -119.9478257      -84.35998925678

 X0001C               291.69799438813  405.69664274538      .21461932747124  .42856289094288      -20.99486684186  91833.075746659
                      281.96107178973       44.0275914      -.3709510692384      -59.9478257      84.359989256778        0.0000000

            X0002C    -214327.6294769  428661.04972396      -.2146193274712  .42856289094288        91854.0706135
                      371233.03031018      119.9995531      .37095106923839      120.0521743      -84.35998925678

 X0002C               -214327.6294769  428661.04972396      -.0349883647534  .04040035212957      .20402355652375  .20402355652375
                      371233.03031018      119.9995531      -.0201990787929     -150.0017969      -8659.028674137    -8659.0286741

            TERRA                 0.0              0.0      .03498836475335  .04040035212957                  0.0
                                  0.0              0.0      .02019907879285       29.9982031                  0.0

 X0002A               428661.04971093  428661.04972396      .12670090232E-5  .04040035212957      .20402355652418  .20402355652418
                       -3.34329523767       -0.0004469       .0404003521097       89.9982031      -8659.028674137    -8659.0286741

            TERRA                 0.0              0.0      -.1267009023E-5  .04040035212957                  0.0
                                  0.0              0.0      -.0404003521097      -90.0017969                  0.0

 X0001C               291.69799438813  405.69664274538      -.2657355717E-4  .38236007762E-4       .1827490362E-6   .1827490362E-6
                      281.96107178973       44.0275914      .27492514412E-4      134.0262414      -.0077561099884       -0.0077561

            TERRA                 0.0              0.0      .26573557175E-4  .38236007762E-4                  0.0
                                  0.0              0.0      -.2749251441E-4      -45.9737586                  0.0

 X0001A               98.336453854132  405.69664274538      .71657970918E-4  .08078220176482      15.901390096569  .40786025762323
                       -393.598409268      -75.9724086      -.0807821699827      -89.9491757      3.9578138336858   -17310.1269577

            X0002A    428661.04971093  428661.04972396      -.7165797092E-4  .08078220176482      -15.49352983895
                       -3.34329523767       -0.0004469      .08078216998266       90.0508243      -17314.08477156

 X0001B               -390.0344482423  405.69664274538      -.0699952403633  .08078220176482      15.901390096569   .4078602576223
                      111.63733747822      164.0275914      .04032902736813      150.0508243      3.9578138336858   -17310.1269577

            X0002B    -214333.4202341  428661.04972396      .06999524036327  .08078220176482      -15.49352983895
                      -371229.6870149     -120.0004469      -.0403290273681      -29.9491757      -17314.08477156

 X0001C               291.69799438813  405.69664274538      .06992358239235  .08078220176482      15.901390096569  .40786025762274
                      281.96107178973       44.0275914      .04045314261453       30.0508243      3.9578138336858   -17310.1269577

            X0002C    -214327.6294769  428661.04972396      -.0699235823924  .08078220176482      -15.49352983895
                      371233.03031018      119.9995531      -.0404531426145     -149.9491757      -17314.08477156

 LN1A                 98.336453425678  405.69664272027      1.0015652947119  1.0291290938952      2.6849546584555   2.684838030515
                      -393.5984093491      -75.9724087      .23658751516118       13.2906545      -208.7398420118     -208.7398420

            VFF2A     109.24081226661  482.96571422624      -.1092408122E-6  .48296571415E-6      -.1166279405E-3
                      -470.4490685009      -76.9272822      .47044906844E-6      103.0727178      -.207257488E-13

 LN1B                 -390.0344480983  405.69664272027      -.2958918490081  1.0291290938952      2.6849546584555  2.6848380305149
                      111.63733788986      164.0275913        -.98567474635     -106.7093455      -208.7398420118     -208.7398420

            VFF2B     -462.0412506418  482.96571422624      .46204125069E-6  .48296571434E-6      -.1166279406E-3
                      140.61921569754      163.0727178       -.140619216E-6      -16.9272822      -.565678589E-13

 LN1C                 291.69799467265  405.69664272027      -.7056734457038  1.0291290938952      2.6849546584556   2.684838030515
                      281.96107145926       44.0275913      .74908723118878      133.2906545      -208.7398420118     -208.7398420

            VFF2C     352.80043837523  482.96571422624      -.3528004384E-6  .48296571414E-6      -.1166279405E-3
                      329.82985280339       43.0727178      -.3298298527E-6     -136.9272822      -.143358647E-13
     Total network loss  P-loss  by summing injections =   2.757982301819E+05

Output for steady-state phasor switch currents.
      Node-K    Node-M            I-real            I-imag            I-magn          Degrees        Power            Reactive
      LN1A      COMPA        -5.73111349E-01   -1.55424453E-01    5.93812579E-01    -164.8267    2.40854008E+00    1.20429802E+02
      LN1B      COMPB         1.51954304E-01    5.74041172E-01    5.93812578E-01      75.1733    2.40850766E+00    1.20429803E+02
      LN1C      COMPC         4.21157083E-01   -4.18616814E-01    5.93812534E-01     -44.8267    2.40851550E+00    1.20429794E+02
      VFF2A     RSNNHA        1.09240812E-07   -4.70449068E-07    4.82965714E-07     -76.9273    1.16627941E-04   -1.99854011E-14
      VFF2B     RSNNHB       -4.62041251E-07    1.40619216E-07    4.82965714E-07     163.0727    1.16627941E-04   -3.87524356E-15
      VFF2C     RSNNHC        3.52800438E-07    3.29829853E-07    4.82965714E-07      43.0727    1.16627941E-04   -3.19682865E-14
      VFF2A     SE2A              Open              Open              Open             Open          Open              Open
      VFF2B     SE2B              Open              Open              Open             Open          Open              Open
      VFF2C     SE2C              Open              Open              Open             Open          Open              Open
      X0001B    XX0003            Open              Open              Open             Open          Open              Open
      X0001C    XX0004            Open              Open              Open             Open          Open              Open
      XX0005    X0002A            Open              Open              Open             Open          Open              Open
      XX0003    X0002B            Open              Open              Open             Open          Open              Open
      XX0004    X0002C            Open              Open              Open             Open          Open              Open
      X0001A    XX0005            Open              Open              Open             Open          Open              Open
      VFUENA    IFUENA        4.28908752E-01    1.21572774E-01    4.45805626E-01      15.8252    9.19281639E+04   -2.60567355E+04
      VFUENB    IFUENB       -1.09169265E-01   -4.32232262E-01    4.45805626E-01    -104.1748    9.19281639E+04   -2.60567355E+04
      VFUENC    IFUENC       -3.19739486E-01    3.10659488E-01    4.45805626E-01     135.8252    9.19281639E+04   -2.60567355E+04
      COMPA     RSNSHA       -5.73111349E-01   -1.55424453E-01    5.93812579E-01    -164.8267    2.40854008E+00    1.20429802E+02
      COMPB     RSNSHB        1.51954304E-01    5.74041172E-01    5.93812578E-01      75.1733    2.40850766E+00    1.20429803E+02
      COMPC     RSNSHC        4.21157083E-01   -4.18616814E-01    5.93812534E-01     -44.8267    2.40851550E+00    1.20429794E+02

Solution at nodes with known voltage.   Nodes that are shorted together by switches are shown as a group of names, with the printed
result applying to the composite group.   The entry "MVA" is  SQRT( P**2 + Q**2 )  in units of power,  while  "P.F."  is the
associated power factor.
              Node                Source  node  voltage             Injected  source  current              Injected  source  power
              name         Rectangular            Polar          Rectangular            Polar            P  and  Q    MVA and P.F.

               VFUENA
              IFUENA       428660.705       428660.705      .42890875164937  .44580562648902      91928.163931344  95549.677071875
                                  0.0              0.0      .12157277395802       15.8252070      -26056.73549683        0.9620981

               VFUENB
              IFUENB     -214330.3525       428660.705      -.1091692651803  .44580562649255      91928.163932733  95549.677072631
                      -371231.0601341     -120.0000000      -.4322322618135     -104.1747930       -26056.7354947        0.9620981

               VFUENC
              IFUENC     -214330.3525       428660.705      -.3197394864711  .44580562648449      91928.163930952  95549.677070903
                      371231.06013415      120.0000000      .31065948785832      135.8252070      -26056.73549464        0.9620981

  +++  Node  "COMPC "  has no connected linear branches.  Add (to ground) the conductance  G = 1.00000000E-18  mhos.
  +++  Node  "COMPB "  has no connected linear branches.  Add (to ground) the conductance  G = 1.00000000E-18  mhos.
  +++  Node  "COMPA "  has no connected linear branches.  Add (to ground) the conductance  G = 1.00000000E-18  mhos.
Card of names for time-step loop output.          |  LN1A  LN1B  LN1C  COMPA COMPB COMPC SB1A  SB1B  SB1C  SE2A  SE2B  SE2C  VFF2A
Card of names for time-step loop output.          |  VFF2B VFF2C IFUENAIFUENBIFUENC
Card of names for time-step loop output.          |-5VFF2A VFF2B VFF2B VFF2C VFF2C VFF2A LN1A  LN1B  LN1B  LN1C  LN1C  LN1A
Card of names for time-step loop output.          |-5SB1A  SB1B  SB1B  SB1C  SB1C  SB1A
Blank card ending requests for output variables.  |BLANK OUTPUT

Column headings for the  55   EMTP output variables follow.  These are divided among the 5 possible classes as follows ....
  First  27     output variables are electric-network voltage differences (upper voltage minus lower voltage);
  Next   6     output variables are branch currents (flowing from the upper node to the lower node);
  Next   22     output variables belong to MODELS (with "MODELS" an internally-added upper name of pair).
   Step      Time      LN1A       LN1B       LN1C       COMPA      COMPB      COMPC      SB1A       SB1B       SB1C       SE2A
 

                       SE2B       SE2C       VFF2A      VFF2B      VFF2C      IFUENA     IFUENB     IFUENC     VFF2A      VFF2B
                                                                                                               VFF2B      VFF2C

                       VFF2C      LN1A       LN1B       LN1C       SB1A       SB1B       SB1C       VFUENA     VFUENB     VFUENC
                       VFF2A      LN1B       LN1C       LN1A       SB1B       SB1C       SB1A       IFUENA     IFUENB     IFUENC

                       COMPA      COMPB      COMPC      MODELS     MODELS     MODELS     MODELS     MODELS     MODELS     MODELS
                       RSNSHA     RSNSHB     RSNSHC     ANVOL      LONG       R0F        R1F        X0F        X1F        RDIVX

                       MODELS     MODELS     MODELS     MODELS     MODELS     MODELS     MODELS     MODELS     MODELS     MODELS
                       RINSER     CLOSE1     RPPOS      RPCERO     LPPOS      LPCERO     CPPOS      CPCERO     XP         CR

                       MODELS     MODELS     MODELS     MODELS     MODELS
                       SIMET      ENC1       ENC2       ENC1AS     ENC2AS
 ***      Phasor I(0) = -5.7311135E-01                     Switch  "LN1A  "  to  "COMPA "  closed in the steady-state.
 ***      Phasor I(0) =  1.5195430E-01                     Switch  "LN1B  "  to  "COMPB "  closed in the steady-state.
 ***      Phasor I(0) =  4.2115708E-01                     Switch  "LN1C  "  to  "COMPC "  closed in the steady-state.
 ***      Phasor I(0) =  1.0924081E-07                     Switch  "VFF2A "  to  "RSNNHA"  closed in the steady-state.
 ***      Phasor I(0) = -4.6204125E-07                     Switch  "VFF2B "  to  "RSNNHB"  closed in the steady-state.
 ***      Phasor I(0) =  3.5280044E-07                     Switch  "VFF2C "  to  "RSNNHC"  closed in the steady-state.
 ***      Phasor I(0) =  4.2890875E-01                     Switch  "VFUENA"  to  "IFUENA"  closed in the steady-state.
 ***      Phasor I(0) = -1.0916927E-01                     Switch  "VFUENB"  to  "IFUENB"  closed in the steady-state.
 ***      Phasor I(0) = -3.1973949E-01                     Switch  "VFUENC"  to  "IFUENC"  closed in the steady-state.
 ***      Phasor I(0) = -5.7311135E-01                     Switch  "COMPA "  to  "RSNSHA"  closed in the steady-state.
 ***      Phasor I(0) =  1.5195430E-01                     Switch  "COMPB "  to  "RSNSHB"  closed in the steady-state.
 ***      Phasor I(0) =  4.2115708E-01                     Switch  "COMPC "  to  "RSNSHC"  closed in the steady-state.
      0       0.0  98.3364534 -390.03445 291.697995 98.3364534 -390.03445 291.697995  428661.05 -214333.42 -214327.63        0.0
                          0.0        0.0 109.240812 -462.04125 352.800438 428660.705 -214330.35 -214330.35 571.282063 -814.84169
                   243.559626 488.370902 -681.73244 193.361541  642994.47  -5.790757 -642988.68 .428908752 -.10916927 -.31973949
                   -.57311135 .151954304 .421157083        0.0   428.5351   1.577103   1.301153   9.000992   7.426066    .175214
                         380.    .043546    .030658    .258862    .340939   1.392396     .01673    .005396   683.0712   13.66142
                          0.0        0.0        0.0        1.0        0.0
    500     .5E-3  158.697991 -402.69634 243.998351 158.697991 -402.69634 243.998351 423384.036  -153621.5 -269762.54        0.0
                          0.0        0.0 181.490325 -478.35045 296.860123  423383.18 -153618.26 -269764.92 659.840773 -775.21057
                   115.369798 561.394333 -646.69469 85.3003591 577005.535 116141.038 -693146.57 .404626241 -.04021498 -.36441126
                   -.54174166 .060283593 .481458071        0.0   428.5351   1.577103   1.301153   9.000992   7.426066    .175214
                         380.    .043546    .030658    .258862    .340939   1.392396     .01673    .005396   683.0712   13.66142
                          0.0        0.0        0.0        1.0        0.0
   1000     .1E-2  215.152142 -405.44265  190.29051 215.152142 -405.44265  190.29051 407681.917 -89126.914   -318555.        0.0
                          0.0        0.0 249.270943 -482.88107 233.610126 407680.557 -89123.572 -318556.98 732.152013  -716.4912
                   -15.660817 620.594794 -595.73316 -24.861632 496808.831  229428.09 -726236.92 .370364867 .029737348 -.40010222
                   -.49703252 -.03287141 .529903923        0.0   428.5351   1.577103   1.301153   9.000992   7.426066    .175214
                         380.    .043546    .030658    .258862    .340939   1.392396     .01673    .005396   683.0712   13.66142
                          0.0        0.0        0.0        1.0        0.0
   1500     .0015  266.308366 -398.20554 131.897169 266.308366 -398.20554 131.897169  381941.31 -22437.725 -359503.59        0.0
                          0.0        0.0 310.913684 -475.52156 164.607873 381939.485 -22434.368 -359505.12 786.435241 -640.12943
                   -146.30581 664.513901  -530.1027  -134.4112 404379.035  337065.86 -741444.89 .326982951 .098957907 -.42594086
                   -.44008478 -.12521704 .565301788        0.0   428.5351   1.577103   1.301153   9.000992   7.426066    .175214
                         380.    .043546    .030658    .258862    .340939   1.392396     .01673    .005396   683.0712   13.66142
                          0.0        0.0        0.0        1.0        0.0
   2000      .002  310.907188 -381.16327 70.2560852 310.907188 -381.16327 70.2560852 346796.039 44803.9557 -391599.99        0.0
                          0.0        0.0 364.898243 -456.45191 91.5536632 346793.795 44807.2448 -391601.04  821.35015 -548.00557
                   -273.34458 692.070461 -451.41936  -240.6511 301992.083 436403.951 -738396.03 .275549776 .165741719  -.4412915
                   -.37230064 -.21447939 .586780034        0.0   428.5351   1.577103   1.301153   9.000992   7.426066    .175214
                         380.    .043546    .030658    .258862    .340939   1.392396     .01673    .005396   683.0712   13.66142
                          0.0        0.0        0.0        1.0        0.0
   2500     .0025  347.850483 -354.73553 6.88504347 347.850483 -354.73553 6.88504347 303111.499 110942.414 -414053.91        0.0
                          0.0        0.0  409.90251 -426.14524 16.2427333 303108.891 110945.554 -414054.45 836.047753 -442.38798
                   -393.65978  702.58601 -361.62057 -340.96544 192169.085 524996.327 -717165.41 .217331533 .228444479 -.44577601
                   -.29534929 -.29846055 .593809824        0.0   428.5351   1.577103   1.301153   9.000992   7.426066    .175214
                         380.    .043546    .030658    .258862    .340939   1.392396     .01673    .005396   683.0712   13.66142
                          0.0        0.0        0.0        1.0        0.0
   3000      .003  376.228524   -319.573  -56.65552 376.228524   -319.573  -56.65552 251963.348 174349.102 -426312.45        0.0
                          0.0        0.0 444.811448 -385.34438 -59.467063 251960.441 174352.016 -426312.46 830.155833 -325.87732
                   -504.27851 695.801527 -262.91748 -432.88404 77614.2462 600661.552  -678275.8 .153761906 .285522159 -.43928406
                   -.21112547  -.3750926 .586218042        0.0   428.5351   1.577103   1.301153   9.000992   7.426066    .175214
                         380.    .043546    .030658    .258862    .340939   1.392396     .01673    .005396   683.0712   13.66142
                          0.0        0.0        0.0        1.0        0.0
   3500     .0035  395.342571 -276.54153 -118.80104 395.342571 -276.54153 -118.80104 194611.023 233462.736 -428073.76        0.0
                          0.0        0.0  468.76749 -335.05499  -133.7125 194607.888 233465.353 -428073.24 803.822478 -201.34249
                   -602.47999 671.884105  -157.7405 -514.14361 -38851.713 661536.496 -622684.78 .086406171 .335569325  -.4219755
                   -.12170296 -.44248865 .564191624        0.0   428.5351   1.577103   1.301153   9.000992   7.426066    .175214
                         380.    .043546    .030658    .258862    .340939   1.392396     .01673    .005396   683.0712   13.66142
                          0.0        0.0        0.0        1.0        0.0
   4000      .004  404.721795 -226.70061 -178.02118 404.721795 -226.70061 -178.02118 132466.719 286827.748 -419294.47        0.0
                          0.0        0.0 481.180923 -276.51543  -204.6655 132463.443 286829.997 -419293.44  757.69635  -71.84993
                   -685.84642 631.422408  -48.67943 -582.74298 -154361.03 706122.216 -551761.19 .016927762 .377351193 -.39427895
                   -.02928382 -.49898914 .528272934        0.0   428.5351   1.577103   1.301153   9.000992   7.426066    .175214
                         380.    .043546    .030658    .258862    .340939   1.392396     .01673    .005396   683.0712   13.66142
                          0.0        0.0        0.0        1.0        0.0
   4500     .0045  404.135858 -171.27778 -232.85808 404.135858 -171.27778 -232.85808 67060.6689 333130.097 -400190.77        0.0
                          0.0        0.0 481.746099 -211.16714 -270.57895 67057.3081 333131.936 -400189.24 692.913244  59.411809
                   -752.32505 575.413636 61.5803035 -636.99394 -266069.43 733320.863 -467251.43 -.05297636 .409845873 -.35686951
                   .063856492 -.54320289 .479346422        0.0   428.5351   1.577103   1.301153   9.000992   7.426066    .175214
                         380.    .043546    .030658    .258862    .340939   1.392396     .01673    .005396   683.0712   13.66142
                          0.0        0.0        0.0        1.0        0.0
   5000      .005  393.598412 -111.63734 -281.96107 393.598412 -111.63734 -281.96107 3.34428101 371229.687 -371233.03        0.0
                          0.0        0.0 470.449078 -140.61922 -329.82986 -.45661E-7  371231.06 -371231.06 611.068301 189.210633
                   -800.27893 505.235755 170.323725 -675.55948 -371226.34 742462.717 -371236.38 -.12157285 .432247196 -.31067435
                   .155424374 -.57404116 .418616798        0.0   428.5351   1.577103   1.301153   9.000992   7.426066    .175214
                         380.    .043546    .030658    .258862    .340939   1.392396     .01673    .005396   683.0712   13.66142
                          0.0        0.0        0.0        1.0        0.0
   5500     .0055  373.369379 -49.248083  -324.1213 373.369379 -49.248083  -324.1213  -67054.06 400188.368 -333134.31        0.0
                          0.0        0.0 447.568592 -66.609069 -380.95952 -67057.308 400189.244 -333131.94 514.177661 314.350454
                   -828.52811 422.617462 274.873212 -697.49067 -467242.43 733322.675 -266080.25 -.18717486  .44400468 -.25682982
                   .243165207 -.59074464 .347579456        0.0   428.5351   1.577103   1.301153   9.000992   7.426066    .175214
                         380.    .043546    .030658    .258862    .340939   1.392396     .01673    .005396   683.0712   13.66142
                          0.0        0.0        0.0        1.0        0.0
   6000      .006  343.946721 14.3538429 -358.30056 343.946721 14.3538429 -358.30056 -132460.37 419293.082 -286832.71        0.0
                          0.0        0.0 413.667004 9.04146036 -422.70846 -132463.44  419293.44   -286830. 404.625544 431.749925
                   -836.37547 329.592878 372.654407 -702.24729 -551753.45 706125.795 -154372.34 -.24816797 .444829281 -.19666131
                   .324918521 -.59290203 .267983541        0.0   428.5351   1.577103   1.301153   9.000992   7.426066    .175214
                         380.    .043546    .030658    .258862    .340939   1.392396     .01673    .005396   683.0712   13.66142
                          0.0        0.0        0.0        1.0        0.0
   6500     .0065  306.054947 77.6023339 -383.65728 306.054947 77.6023339 -383.65728 -194605.07  428073.41 -233468.34        0.0
                          0.0        0.0  369.57905 84.4696205 -454.04867 -194607.89  428073.24 -233465.35 285.109429 538.518291
                   -823.62772 228.452613 461.259614 -689.71223 -622678.47 661541.754 -38863.279 -.30305045 .434700757  -.1316503
                   .398671257  -.5804602 .181788961        0.0   428.5351   1.577103   1.301153   9.000992   7.426066    .175214
                         380.    .043546    .030658    .258862    .340939   1.392396     .01673    .005396   683.0712   13.66142
                          0.0        0.0        0.0        1.0        0.0
   7000      .007  260.627095 138.939992 -399.56709 260.627095 138.939992 -399.56709 -251957.94 426313.149 -174355.21        0.0
                          0.0        0.0  316.39116 157.817694 -474.20885 -251960.44 426312.457 -174352.02 158.573467 632.026548
                   -790.60001 121.687103 538.507079 -660.19418 -678271.09  600668.36 77602.7277 -.35047079 .413868435 -.06339765
                   .462607338 -.55372553 .091118192        0.0   428.5351   1.577103   1.301153   9.000992   7.426066    .175214
                         380.    .043546    .030658    .258862    .340939   1.392396     .01673    .005396   683.0712   13.66142
                          0.0        0.0        0.0        1.0        0.0
   7500     .0075  208.781605 196.856545 -405.63815 208.781605 196.856545 -405.63815 -303106.79 414055.652 -110948.87        0.0
                          0.0        0.0 255.412811 227.279701 -482.69251 -303108.89 414054.446 -110945.55 28.1331099 709.972213
                   -738.10532 11.9250603 602.494694 -614.41975 -717162.44 525004.517 192157.922 -.38926223 .382845726 .006416506
                   .515152536 -.51335627 -.00179627        0.0   428.5351   1.577103   1.301153   9.000992   7.426066    .175214
                         380.    .043546    .030658    .258862    .340939   1.392396     .01673    .005396   683.0712   13.66142
                          0.0        0.0        0.0        1.0        0.0
   8000      .008  151.795693  249.92561  -401.7213 151.795693  249.92561  -401.7213  -346792.1 391602.713 -44810.608        0.0
                          0.0        0.0 188.145374 291.145316 -479.29069  -346793.8  391601.04 -44807.245 -102.99994 770.436007
                   -667.43606 -98.129917 651.646913   -553.517 -738394.82 436413.321 301981.497 -.41846808 .342395759 .076072321
                   .555012964 -.46034649  -.0946665        0.0   428.5351   1.577103   1.301153   9.000992   7.426066    .175214
                         380.    .043546    .030658    .258862    .340939   1.392396     .01673    .005396   683.0712   13.66142
                          0.0        0.0        0.0        1.0        0.0
   8500     .0085  91.0715163 296.840952 -387.91247 91.0715163 296.840952 -387.91247 -381938.28 359507.228 22431.0479        0.0
                          0.0        0.0 116.245142 347.841983 -464.08713 -381939.48 359505.117 22434.3679 -231.59684 811.929108
                   -580.33227 -205.76944  684.75342 -478.98398  -741445.5  337076.18 404369.323 -.43736923 .293514552 .143854673
                    .58120714 -.39600144 -.18520567        0.0   428.5351   1.577103   1.301153   9.000992   7.426066    .175214
                         380.    .043546    .030658    .258862    .340939   1.392396     .01673    .005396   683.0712   13.66142
                          0.0        0.0        0.0        1.0        0.0
   9000      .009  28.1050822 336.446972 -364.55205 28.1050822 336.446972 -364.55205 -407679.85 318559.478 89120.3736        0.0
                          0.0        0.0 41.4825804  395.97362  -437.4562 -407680.56 318556.985  89123.572 -354.49104 833.429821
                   -478.93878 -308.34189 700.999026 -392.65714 -726239.33 229439.105 496800.226 -.44550086 .237406028 .208094829
                   .593090059 -.32190555  -.2711845        0.0   428.5351   1.577103   1.301153   9.000992   7.426066    .175214
                         380.    .043546    .030658    .258862    .340939   1.392396     .01673    .005396   683.0712   13.66142
                          0.0        0.0        0.0        1.0        0.0
   9500     .0095  -35.553423 367.768565 -332.21514 -35.553423 367.768565 -332.21514   -423383. 269767.738  153615.26        0.0
                          0.0        0.0 -34.301791 434.355249 -400.05346 -423383.18 269764.922 153618.258 -468.65704 834.408708
                   -365.75167 -403.32199 699.983707 -296.66172 -693150.74 116152.478 576998.258  -.4426633 .175452038 .267211258
                   .590369132 -.23988323  -.3504859        0.0   428.5351   1.577103   1.301153   9.000992   7.426066    .175214
                         380.    .043546    .030658    .258862    .340939   1.392396     .01673    .005396   683.0712   13.66142
                          0.0        0.0        0.0        1.0        0.0
  10000       .01  -98.336451 390.034459 -291.69801 -98.336451 390.034459 -291.69801 -428661.05  214333.42 214327.629        0.0
                          0.0        0.0 -109.24088 462.041293 -352.80041 -428660.71 214330.353 214330.352 -571.28217 814.841707
                   -243.55953 -488.37091 681.732467 -193.36156 -642994.47 5.79097891 642988.679 -.42892598 .109177879 .319748101
                   .573111366 -.15195422 -.42115714        0.0   428.5351   1.577103   1.301153   9.000992   7.426066    .175214
                         380.    .043546    .030658    .258862    .340939   1.392396     .01673    .005396   683.0712   13.66142
                          0.0        0.0        0.0        1.0        0.0
  10500     .0105  -158.69813 402.696418 -243.99829 -158.69813 402.696418 -243.99829 -423384.04 153621.503 269762.541        0.0
                          0.0        0.0 -181.49039 478.350493  -296.8601 -423383.18 153618.258 269764.922 -659.84088 775.210596
                   -115.36971 -561.39454  646.69471 -85.300168 -577005.55 -116141.04 693146.585 -.40462699 .040215351 .364411639
                   .541741677 -.06028359 -.48145806        0.0   428.5351   1.577103   1.301153   9.000992   7.426066    .175214
                         380.    .043546    .030658    .258862    .340939   1.392396     .01673    .005396   683.0712   13.66142
                          0.0        0.0        0.0        1.0        0.0
  11000      .011  -215.14978 405.441473 -190.29169 -215.14978 405.441473 -190.29169 -407681.91 89126.9124 318555.002        0.0
                          0.0        0.0 -249.27076 482.880992 -233.61023 -407680.56  89123.572 318556.985 -732.15175 716.491225
                   15.6605271 -620.59125 595.733166 24.8580881 -496808.83 -229428.09 726236.917 -.37036681 -.02973638 .400103185
                   .497032536 .032871425 -.52990393        0.0   428.5351   1.577103   1.301153   9.000992   7.426066    .175214
                         380.    .043546    .030658    .258862    .340939   1.392396     .01673    .005396   683.0712   13.66142
                          0.0        0.0        0.0        1.0        0.0
  11500     .0115   -266.3084  398.20556 -131.89716  -266.3084  398.20556 -131.89716  -381941.3 22437.7216 359503.582        0.0
                          0.0        0.0 -310.91369 475.521574 -164.60789 -381939.48 22434.3679 359505.117 -786.43526 640.129463
                   146.305796 -664.51396 530.102717 134.411245 -404379.02 -337065.86 741444.885 -.32698216  -.0989583 .425940458
                   .440084794 .125217002  -.5653018        0.0   428.5351   1.577103   1.301153   9.000992   7.426066    .175214
                         380.    .043546    .030658    .258862    .340939   1.392396     .01673    .005396   683.0712   13.66142
                          0.0        0.0        0.0        1.0        0.0
  12000      .012  -310.90728 381.163327 -70.256051 -310.90728 381.163327 -70.256051 -346796.04 -44803.956 391599.995        0.0
                          0.0        0.0 -364.90071 456.453148  -91.55244  -346793.8 -44807.245  391601.04 -821.35386 548.005588
                   273.348267  -692.0706 451.419378 240.651224 -301992.08 -436403.95 738396.035 -.27554967 -.16574177  .44129144
                   .372300702 .214479364 -.58678005        0.0   428.5351   1.577103   1.301153   9.000992   7.426066    .175214
                         380.    .043546    .030658    .258862    .340939   1.392396     .01673    .005396   683.0712   13.66142
                          0.0        0.0        0.0        1.0        0.0
  12500     .0125   -347.8505 354.735546 -6.8850488  -347.8505 354.735546 -6.8850488  -303111.5 -110942.41 414053.913        0.0
                          0.0        0.0 -409.90265 426.145326 -16.242671 -303108.89 -110945.55 414054.446 -836.04798 442.387997
                   393.659984 -702.58604 361.620595 340.965448 -192169.08 -524996.33 717165.412 -.21733132 -.22844459 .445775903
                   .295349342 .298460501 -.59380984        0.0   428.5351   1.577103   1.301153   9.000992   7.426066    .175214
                         380.    .043546    .030658    .258862    .340939   1.392396     .01673    .005396   683.0712   13.66142
                          0.0        0.0        0.0        1.0        0.0
  13000      .013  -376.22863 319.573071 56.6555608 -376.22863 319.573071 56.6555608 -251963.35  -174349.1  426312.45        0.0
                          0.0        0.0 -444.81267    385.345 59.4676703 -251960.44 -174352.02 426312.457 -830.15767  325.87733
                   504.280341  -695.8017  262.91751 432.884192 -77614.246 -600661.55 678275.798 -.15376192 -.28552215  .43928407
                   .211125496 .375092597 -.58621807        0.0   428.5351   1.577103   1.301153   9.000992   7.426066    .175214
                         380.    .043546    .030658    .258862    .340939   1.392396     .01673    .005396   683.0712   13.66142
                          0.0        0.0        0.0        1.0        0.0
  13500     .0135  -395.34257 276.541546 118.801022 -395.34257 276.541546 118.801022 -194611.02 -233462.74  428073.76        0.0
                          0.0        0.0 -468.76731 335.054905 133.712404 -194607.89 -233465.35  428073.24 -803.82221 201.342501
                   602.479712 -671.88411 157.740524  514.14359 38851.7135  -661536.5 622684.783 -.08640617 -.33556933 .421975494
                   .121702979 .442488652 -.56419165        0.0   428.5351   1.577103   1.301153   9.000992   7.426066    .175214
                         380.    .043546    .030658    .258862    .340939   1.392396     .01673    .005396   683.0712   13.66142
                          0.0        0.0        0.0        1.0        0.0
  14000      .014  -404.72198 226.700714 178.021271 -404.72198 226.700714 178.021271 -132466.73 -286827.74 419294.472        0.0
                          0.0        0.0 -481.18095  276.51545   204.6655 -132463.44   -286830.  419293.44  -757.6964   71.84995
                   685.846449  -631.4227 48.6794424 582.743256 154361.014 -706122.22 551761.202 -.01692282 -.37735366 .394276485
                   .029283786 .498989147 -.52827296        0.0   428.5351   1.577103   1.301153   9.000992   7.426066    .175214
                         380.    .043546    .030658    .258862    .340939   1.392396     .01673    .005396   683.0712   13.66142
                          0.0        0.0        0.0        1.0        0.0
  14500     .0145  -404.13579  171.27775 232.858039 -404.13579  171.27775 232.858039 -67060.664  -333130.1 400190.764        0.0
                          0.0        0.0 -481.74609 211.167149 270.578936 -67057.308 -333131.94 400189.244 -692.91323 -59.411787
                   752.325021 -575.41354  -61.58029 636.993828 266069.435 -733320.86 467251.428 .052977215  -.4098463 .356869085
                   -.06385643 .543202895 -.47934644        0.0   428.5351   1.577103   1.301153   9.000992   7.426066    .175214
                         380.    .043546    .030658    .258862    .340939   1.392396     .01673    .005396   683.0712   13.66142
                          0.0        0.0        0.0        1.0        0.0
  % % % % % %   Suspended simulation;  plot data space exhausted;  SPY SPACE is required.   LIMBUF =  840000.
  % % % % % %   Suspended simulation;  plot data space exhausted;  SPY SPACE is required.   LIMBUF =  840000.
  +++  Time-sharing disabled.   Send  user-keyed interrupt to silence alarm.
   Current values.  INDBUF  INDBEG  LIMBUF  MFLUSH  NUMDCD  KCARD1  KCARD2
                    839994      50  840000    1000     230       1     231
Plot timespan now in memory (in sec) = 0.00000000E+00   1.49990000E-02
   ++++  Begin plot-data copy from memory to disk.   MFLUSH, INDBUF, N4, Tbeg,  Tend = 1001  839994       1  -1.00000E+00
1.00000E+19
  15000      .015  -393.59856 111.637419 281.961142 -393.59856 111.637419 281.961142 -3.3467252 -371229.69 371233.032        0.0
                          0.0        0.0  -470.4491 140.619246 329.829856 -.61533E-6 -371231.06  371231.06 -611.06835 -189.21061
                   800.278959 -505.23598 -170.32372 675.559703 371226.339 -742462.72 371236.379 .121574104 -.43224782 .310673719
                   -.15542434 .574041171  -.4186168        0.0   428.5351   1.577103   1.301153   9.000992   7.426066    .175214
                         380.    .043546    .030658    .258862    .340939   1.392396     .01673    .005396   683.0712   13.66142
                          0.0        0.0        0.0        1.0        0.0
  15500     .0155  -373.36928 49.2480384 324.121241 -373.36928 49.2480384 324.121241 67054.0583 -400188.37 333134.308        0.0
                          0.0        0.0 -447.56805 66.6088049 380.959245 67057.3081 -400189.24 333131.936 -514.17685 -314.35044
                   828.527294 -422.61732  -274.8732 697.490521 467242.425 -733322.68  266080.25 .187174491  -.4440045 .256830007
                    -.2431652 .590744655 -.34757948        0.0   428.5351   1.577103   1.301153   9.000992   7.426066    .175214
                         380.    .043546    .030658    .258862    .340939   1.392396     .01673    .005396   683.0712   13.66142
                          0.0        0.0        0.0        1.0        0.0
  16000      .016  -343.94671 -14.353843 358.300553 -343.94671 -14.353843 358.300553 132460.369 -419293.08 286832.713        0.0
                          0.0        0.0 -413.66641 -9.0417538 422.708166 132463.443 -419293.44 286829.997 -404.62466 -431.74992
                   836.374577 -329.59287  -372.6544 702.247262 551753.451 -706125.79 154372.344 .248168035 -.44482932 .196661281
                   -.32491849 .592902041 -.26798354        0.0   428.5351   1.577103   1.301153   9.000992   7.426066    .175214
                         380.    .043546    .030658    .258862    .340939   1.392396     .01673    .005396   683.0712   13.66142
                          0.0        0.0        0.0        1.0        0.0
  16500     .0165  -306.05494 -77.602331 383.657272 -306.05494 -77.602331 383.657272 194605.066 -428073.41 233468.344        0.0
                          0.0        0.0 -369.57886 -84.469718 454.048581 194607.888 -428073.24 233465.353 -285.10915  -538.5183
                   823.627444 -228.45261  -461.2596 689.712212 622678.476 -661541.75 38863.2777 .303050444 -.43470075 .131650307
                   -.39867124 .580460211 -.18178899        0.0   428.5351   1.577103   1.301153   9.000992   7.426066    .175214
                         380.    .043546    .030658    .258862    .340939   1.392396     .01673    .005396   683.0712   13.66142
                          0.0        0.0        0.0        1.0        0.0
  17000      .017  -260.62708 -138.93999 399.567072 -260.62708 -138.93999 399.567072 251957.938 -426313.15 174355.211        0.0
                          0.0        0.0 -316.39084 -157.81785 474.208696 251960.441 -426312.46 174352.016 -158.57299 -632.02655
                   790.599537 -121.68708 -538.50707 660.194149 678271.087 -600668.36 -77602.727 .350470803 -.41386844 .063397639
                   -.46260734  .55372552 -.09111821        0.0   428.5351   1.577103   1.301153   9.000992   7.426066    .175214
                         380.    .043546    .030658    .258862    .340939   1.392396     .01673    .005396   683.0712   13.66142
                          0.0        0.0        0.0        1.0        0.0
  17500     .0175  -208.78176 -196.85647 405.638231 -208.78176 -196.85647 405.638231 303106.771 -414055.64 110948.873        0.0
                          0.0        0.0 -255.41288 -227.27967 482.692544 303108.891 -414054.45 110945.554 -28.133209 -709.97221
                   738.105421 -11.925291  -602.4947 614.419992 717162.415 -525004.52  -192157.9 .389261361 -.38284529 -.00641607
                   -.51515253 .513356293  .00179627        0.0   428.5351   1.577103   1.301153   9.000992   7.426066    .175214
                         380.    .043546    .030658    .258862    .340939   1.392396     .01673    .005396   683.0712   13.66142
                          0.0        0.0        0.0        1.0        0.0
  18000      .018   -151.7955 -249.92571  401.72121  -151.7955 -249.92571  401.72121 346792.109 -391602.71 44810.6059        0.0
                          0.0        0.0 -188.14537 -291.14531 479.290688 346793.795 -391601.04 44807.2448 102.999941   -770.436
                   667.436062 98.1302025 -651.64692 553.516714 738394.824 -436413.32  -301981.5 .418467069 -.34239525 -.07607182
                   -.55501298 .460346508 .094666477        0.0   428.5351   1.577103   1.301153   9.000992   7.426066    .175214
                         380.    .043546    .030658    .258862    .340939   1.392396     .01673    .005396   683.0712   13.66142
                          0.0        0.0        0.0        1.0        0.0
  18500     .0185  -91.071299 -296.84107 387.912367 -91.071299 -296.84107 387.912367 381938.269 -359507.22 -22431.044        0.0
                          0.0        0.0 -116.24513 -347.84199 464.087118 381939.485 -359505.12 -22434.368 231.596857 -811.92911
                   580.332249 205.769768 -684.75343 478.983667 741445.493 -337076.18 -404369.31 .437368271 -.29351408 -.14385419
                   -.58120714 .396001462 .185205661        0.0   428.5351   1.577103   1.301153   9.000992   7.426066    .175214
                         380.    .043546    .030658    .258862    .340939   1.392396     .01673    .005396   683.0712   13.66142
                          0.0        0.0        0.0        1.0        0.0
  19000      .019  -28.104998 -336.44702 364.552016 -28.104998 -336.44702 364.552016 407679.853 -318559.48 -89120.374        0.0
                          0.0        0.0 -41.482587 -395.97362 437.456203 407680.557 -318556.98 -89123.572 354.491028 -833.42982
                    478.93879 308.342021 -700.99903 392.657014 726239.333  -229439.1 -496800.23 .445500455 -.23740583 -.20809463
                   -.59309006 .321905547 .271184522        0.0   428.5351   1.577103   1.301153   9.000992   7.426066    .175214
                         380.    .043546    .030658    .258862    .340939   1.392396     .01673    .005396   683.0712   13.66142
                          0.0        0.0        0.0        1.0        0.0
  19500     .0195  35.5533362 -367.76852 332.215188 35.5533362 -367.76852 332.215188 423382.998 -269767.74 -153615.26        0.0
                          0.0        0.0  34.301396 -434.35506 400.053664  423383.18 -269764.92 -153618.26 468.656456 -834.40872
                   365.752269 403.321861 -699.98371 296.661852 693150.736 -116152.48 -576998.26 .442663356 -.17545207 -.26721129
                   -.59036914  .23988327 .350485846        0.0   428.5351   1.577103   1.301153   9.000992   7.426066    .175214
                         380.    .043546    .030658    .258862    .340939   1.392396     .01673    .005396   683.0712   13.66142
                          0.0        0.0        0.0        1.0        0.0
  20000       .02  98.3364357 -390.03445 291.698018 98.3364357 -390.03445 291.698018  428661.05 -214333.42 -214327.63        0.0
                          0.0        0.0 109.240789 -462.04125 352.800465 428660.705 -214330.35 -214330.35 571.282044 -814.84172
                   243.559676 488.370889 -681.73247 193.361582 642994.471 -5.7909782 -642988.68 .428925946 -.10917786 -.31974808
                   -.57311137 .151954289 .421157123        0.0   428.5351   1.577103   1.301153   9.000992   7.426066    .175214
                         380.    .043546    .030658    .258862    .340939   1.392396     .01673    .005396   683.0712   13.66142
                          0.0        0.0        0.0        1.0        0.0
  20500     .0205  158.698075  -402.6964  243.99832 158.698075  -402.6964  243.99832 423384.044  -153621.5 -269762.54        0.0
                          0.0        0.0 181.490073 -478.35035 296.860273  423383.18 -153618.26 -269764.92 659.840419 -775.21062
                     115.3702  561.39447 -646.69472 85.3002455 577005.546 116141.038 -693146.58 .404626954 -.04021533 -.36441162
                   -.54174169  .06028365 .481458069        0.0   428.5351   1.577103   1.301153   9.000992   7.426066    .175214
                         380.    .043546    .030658    .258862    .340939   1.392396     .01673    .005396   683.0712   13.66142
                          0.0        0.0        0.0        1.0        0.0
  21000      .021  215.152102 -405.44265 190.290544 215.152102 -405.44265 190.290544 407681.918 -89126.914   -318555.        0.0
                          0.0        0.0 249.270859 -482.88105 233.610191 407680.557 -89123.572 -318556.98 732.151909 -716.49124
                   -15.660668 620.594747 -595.73319 -24.861558 496808.832  229428.09 -726236.92 .370364748 .029737408 -.40010216
                   -.49703254 -.03287141 .529903922        0.0   428.5351   1.577103   1.301153   9.000992   7.426066    .175214
[...]
                         380.    .043546    .030658    .258862    .340939   1.392396     .01673    .005396   683.0712   13.66142
                          0.0        0.0        0.0        1.0        0.0
 113000      .113  -251052.72 -170157.03 421209.752 -251052.72 -170157.03 421209.752 -251052.72 -170157.03 421209.753        0.0
                          0.0        0.0 -244557.72 -163628.29 408186.004 -251960.44 -174352.02 426312.457 -80929.427 -571814.29
                    652743.72 -80895.688 -591366.78 672262.472 -80895.688 -591366.79 672262.473 -113.16111 -425.18785 538.348962
                   -583.04916 549.680467 33.3686897        0.0   428.5351   1.577103   1.301153   9.000992   7.426066    .175214
                         380.    .043546    .030658    .258862    .340939   1.392396     .01673    .005396   683.0712   13.66142
                          0.0        0.0        0.0        1.0        0.0
 113500     .1135  -198584.81 -235107.38 433692.183 -198584.81 -235107.38 433692.183 -198584.81 -235107.38 433692.184        0.0
                          0.0        0.0 -183407.75 -229397.69 412805.433 -194607.89 -233465.35  428073.24 45989.9382 -642203.12
                    596213.18  36522.571 -668799.56 632276.989 36522.5719 -668799.56  632276.99 21.7997784 -429.70095 407.901175
                   -634.03921 501.214545 132.824633        0.0   428.5351   1.577103   1.301153   9.000992   7.426066    .175214
                         380.    .043546    .030658    .258862    .340939   1.392396     .01673    .005396   683.0712   13.66142
                          0.0        0.0        0.0        1.0        0.0
 114000      .114  -148772.82 -287242.48 436015.292 -148772.82 -287242.48 436015.292 -148772.82 -287242.48 436015.293        0.0
                          0.0        0.0 -162824.21 -289034.19   451858.4 -132463.44   -286830.  419293.44 126209.981 -740892.59
                   614682.609 138469.659 -723257.77 584788.108  138469.66 -723257.77 584788.109 52.5226721 -433.16557   380.6429
                   -670.01031 439.953666 230.056644        0.0   428.5351   1.577103   1.301153   9.000992   7.426066    .175214
                         380.    .043546    .030658    .258862    .340939   1.392396     .01673    .005396   683.0712   13.66142
                          0.0        0.0        0.0        1.0        0.0
 114500     .1145  -72476.529 -332689.23 405165.759 -72476.529 -332689.23 405165.759 -72476.529 -332689.23 405165.759        0.0
                          0.0        0.0 -173214.04 -368823.46 542037.506 -67057.308 -333131.94 400189.244 195609.423 -910860.97
                   715251.548   260212.7 -737854.99 477642.288 260212.702 -737854.99 477642.288 190.438467 -414.56946 224.130991
                   -692.38051 367.181406 325.199134        0.0   428.5351   1.577103   1.301153   9.000992   7.426066    .175214
                         380.    .043546    .030658    .258862    .340939   1.392396     .01673    .005396   683.0712   13.66142
                          0.0        0.0        0.0        1.0        0.0
 115000      .115  -20365.337 -376417.84  396783.18 -20365.337 -376417.84  396783.18 -20365.336 -376417.84  396783.18        0.0
                          0.0        0.0 -112012.48 -432479.97 544492.449 .127058E-4 -371231.06  371231.06 320467.483 -976972.41
                   656504.932 356052.507 -773201.02 417148.517 356052.508 -773201.02 417148.517 253.955463 -391.70669  137.75123
                   -698.65689 284.878289 413.778608        0.0   428.5351   1.577103   1.301153   9.000992   7.426066    .175214
                         380.    .043546    .030658    .258862    .340939   1.392396     .01673    .005396   683.0712   13.66142
                          0.0        0.0        0.0        1.0        0.0
 115500     .1155  70273.1489 -397188.33  326915.18 70273.1489 -397188.33  326915.18 70273.1492 -397188.33 326915.181        0.0
                          0.0        0.0 -18226.987 -475060.36 493287.348 67057.3081 -400189.24 333131.936 456833.373 -968347.71
                   511514.335 467461.478 -724103.51 256642.031 467461.479 -724103.51 256642.032 143.941486 -399.65393  255.71244
                   -687.62695 195.441878 492.185091        0.0   428.5351   1.577103   1.301153   9.000992   7.426066    .175214
                         380.    .043546    .030658    .258862    .340939   1.392396     .01673    .005396   683.0712   13.66142
                          0.0        0.0        0.0        1.0        0.0
 116000      .116   114172.64 -426504.58 312331.941  114172.64 -426504.58 312331.941 114172.641 -426504.58 312331.941        0.0
                          0.0        0.0 80946.2071 -516140.32 435194.118 132463.443 -419293.44 286829.997 597086.532 -951334.44
                   354247.911  540677.22 -738836.52 198159.301 540677.222 -738836.52   198159.3 420.216873 -314.71762 -105.49925
                   -665.58483 99.7457693 565.839047        0.0   428.5351   1.577103   1.301153   9.000992   7.426066    .175214
                         380.    .043546    .030658    .258862    .340939   1.392396     .01673    .005396   683.0712   13.66142
                          0.0        0.0        0.0        1.0        0.0
 116500     .1165  192438.645 -434063.91 241625.268 192438.645 -434063.91 241625.268 192438.646 -434063.91 241625.267        0.0
                          0.0        0.0 171947.248  -536667.1 364719.856 194607.888 -428073.24 233465.353 708614.352 -901386.96
                   192772.607 626502.558 -675689.18 49186.6237 626502.559 -675689.18 49186.6213 670.457415 -160.09847 -510.35894
                   -628.76038 .344324953 628.416026        0.0   428.5351   1.577103   1.301153   9.000992   7.426066    .175214
                         380.    .043546    .030658    .258862    .340939   1.392396     .01673    .005396   683.0712   13.66142
                          0.0        0.0        0.0        1.0        0.0
 117000      .117  272049.104 -425753.64  153704.54 272049.104 -425753.64  153704.54 272049.106 -425753.64 153704.539        0.0
                          0.0        0.0 282738.635 -535691.34 252952.709 251960.441 -426312.46 174352.016 818429.978 -788644.05
                   -29785.926 697802.749 -579458.18 -118344.56  697802.75 -579458.18 -118344.57 685.339649 -14.721634 -670.61802
                   -575.78237 -99.494547 675.276942        0.0   428.5351   1.577103   1.301153   9.000992   7.426066    .175214
                         380.    .043546    .030658    .258862    .340939   1.392396     .01673    .005396   683.0712   13.66142
                          0.0        0.0        0.0        1.0        0.0
 117500     .1175  300254.174 -423443.86 123189.683 300254.174 -423443.86 123189.683 300254.175 -423443.86 123189.682        0.0
                          0.0        0.0 284938.292 -551309.17  266370.88 303108.891 -414054.45 110945.554 836247.465 -817680.05
                   -18567.412 723698.031 -546633.54 -177064.49 723698.032 -546633.54 -177064.49 570.785789 89.0623383 -659.84813
                   -509.06115 -196.98964 706.050751        0.0   428.5351   1.577103   1.301153   9.000992   7.426066    .175214
                         380.    .043546    .030658    .258862    .340939   1.392396     .01673    .005396   683.0712   13.66142
                          0.0        0.0        0.0        1.0        0.0
 118000      .118  342614.011 -398136.43 55522.4237 342614.011 -398136.43 55522.4237 342614.012 -398136.43 55522.4222        0.0
                          0.0        0.0 437529.682 -511336.54 73806.8626 346793.795 -391601.04 44807.2447 948866.226 -585143.41
                   -363722.82 740750.445 -453658.86 -287091.59 740750.445 -453658.86 -287091.59 560.182888 224.836491 -785.01938
                   -432.75324 -290.56996 723.323186        0.0   428.5351   1.577103   1.301153   9.000992   7.426066    .175214
                         380.    .043546    .030658    .258862    .340939   1.392396     .01673    .005396   683.0712   13.66142
                          0.0        0.0        0.0        1.0        0.0
 118500     .1185  371506.014 -371864.21  358.19474 371506.014 -371864.21  358.19474 371506.015 -371864.21 358.193221        0.0
                          0.0        0.0 527539.369 -463992.53 -63546.839 381939.485 -359505.12 -22434.368 991531.899 -400445.69
                   -591086.21 743370.222  -372222.4 -371147.82 743370.222  -372222.4 -371147.82 434.384894 325.428507  -759.8134
                   -346.33266 -377.23118 723.563817        0.0   428.5351   1.577103   1.301153   9.000992   7.426066    .175214
                         380.    .043546    .030658    .258862    .340939   1.392396     .01673    .005396   683.0712   13.66142
                          0.0        0.0        0.0        1.0        0.0
 119000      .119  408715.717 -325407.26 -83308.458 408715.717 -325407.26 -83308.458 408715.717 -325407.26  -83308.46        0.0
                          0.0        0.0 577211.772  -396265.5 -180946.27 407680.557 -318556.98 -89123.572 973477.275 -215319.24
                   -758158.04 734122.976  -242098.8 -492024.18 734122.975  -242098.8 -492024.18 185.796953 376.540557 -562.33751
                   -251.80568 -454.70792 706.513544        0.0   428.5351   1.577103   1.301153   9.000992   7.426066    .175214
                         380.    .043546    .030658    .258862    .340939   1.392396     .01673    .005396   683.0712   13.66142
                          0.0        0.0        0.0        1.0        0.0
 119500     .1195  442145.758  -271503.7 -170642.06 442145.758  -271503.7 -170642.06 442145.759  -271503.7 -170642.06        0.0
                          0.0        0.0 598797.113 -320691.76 -278105.35  423383.18 -269764.92 -153618.26 919488.872 -42586.405
                   -876902.47 713649.462 -100861.65 -612787.81 713649.461 -100861.65 -612787.82 257.655746 510.072262 -767.72801
                   -156.26837 -522.54132 678.809689        0.0   428.5351   1.577103   1.301153   9.000992   7.426066    .175214
                         380.    .043546    .030658    .258862    .340939   1.392396     .01673    .005396   683.0712   13.66142
                          0.0        0.0        0.0        1.0        0.0
  % % % % % %   Suspended simulation;  plot data space exhausted;  SPY SPACE is required.   LIMBUF =  840000.
  % % % % % %   Suspended simulation;  plot data space exhausted;  SPY SPACE is required.   LIMBUF =  840000.
  +++  Time-sharing disabled.   Send  user-keyed interrupt to silence alarm.
   Current values.  INDBUF  INDBEG  LIMBUF  MFLUSH  NUMDCD  KCARD1  KCARD2
                    839994      50  840000    1007     230       1     231
Plot timespan now in memory (in sec) = 1.04985997E-01   1.19985000E-01
   ++++  Begin plot-data copy from memory to disk.   MFLUSH, INDBUF, N4, Tbeg,  Tend = 1008  839994       1  -1.00000E+00
1.00000E+19
 120000       .12  451456.915 -212124.24 -239332.68 451456.915 -212124.24 -239332.68 451456.915 -212124.24 -239332.68        0.0
                          0.0        0.0 599164.346 -244243.59 -354920.76 428660.705 -214330.35 -214330.35 843407.931 110677.176
                   -954085.11 663581.155 27208.4359 -690789.59 663581.153 27208.4373 -690789.59 -228.82887 485.077364  -256.2485
                   -52.487401 -576.46807 628.955446        0.0   428.5351   1.577103   1.301153   9.000992   7.426066    .175214
                         380.    .043546    .030658    .258862    .340939   1.392396     .01673    .005396   683.0712   13.66142
                          0.0        0.0        0.0        1.0        0.0

Extrema of output variables follow.   Order and column positioning are the same as for the preceding time-step loop output.
Variable maxima :  492656.034 443993.168 543787.258 492656.034 443993.168 543787.258 492656.034 490246.015 543787.259        0.0
                          0.0        0.0 685195.296 604100.803 743715.934 428660.705 428660.703 428660.703 .1115459E7 .1084956E7
                   .1280941E7 827538.693 803314.661 807047.149 827538.692 803314.659 807047.151  1363.8823 785.355528 1411.13875
                   563.712673 607.599534 775.286125        0.0   428.5351   1.577103   1.301153   9.000992   7.426066    .175214
                         380.    .043546    .030658    .258862    .340939   1.392396     .01673    .005396   683.0712   13.66142
                          0.0        0.0        0.0        1.0        0.0
Times of maxima :     .058589    .066284    .054781    .058589    .066284    .054781    .058589    .047236    .054781        0.0
                          0.0        0.0    .080311    .067421    .053574        0.0    .006667    .113333    .057253    .065608
                      .053222    .058575    .084859    .092147    .058575    .084859    .092147    .055242    .081283      .0698
                      .104973    .091611    .058421        0.0        0.0        0.0        0.0        0.0        0.0        0.0
                          0.0        0.0        0.0        0.0        0.0        0.0        0.0        0.0        0.0        0.0
                          0.0        0.0        0.0        0.0        0.0
Variable minima :  -499330.37 -445038.29 -467400.96 -499330.37 -445038.29 -467400.96 -499330.37 -445038.29 -467400.96        0.0
                          0.0        0.0  -686185.9 -658021.57 -718003.59 -428660.71  -428660.7  -428660.7 -.112865E7 -.121588E7
                   -.122981E7 -775096.13 -929614.15 -856177.79 -775096.13 -929614.15 -856177.79 -1318.7729 -880.19497 -1223.8516
                   -744.04031 -663.72919 -541.48854        0.0   428.5351   1.577103   1.301153   9.000992   7.426066    .175214
                         380.    .043546    .030658    .258862    .340939   1.392396     .01673    .005396   683.0712   13.66142
                          0.0        0.0        0.0        1.0        0.0
Times of minima :     .070021    .116672    .062126    .070021    .116672    .062126    .070021    .116672    .062126        0.0
                          0.0        0.0    .069323    .056567    .083135        .01    .016667    .103333    .068558    .056565
                      .060329    .108259    .054785    .062125    .108259    .054785    .062125    .066768     .05458    .058434
                      .055071    .081535    .108123        0.0        0.0        0.0        0.0        0.0        0.0        0.0
                          0.0        0.0        0.0        0.0        0.0        0.0        0.0        0.0        0.0        0.0
                          0.0        0.0        0.0        0.0        0.0

Blank card terminating all plot cards.            |BLANK PLOT

Memory storage figures for the preceding, now-completed data case.  -------------------------------  Present   Program
A value of  "-9999"  indicates that no figure is available.         28-Feb-22  20:09:35              figure     limit  (name)
     Size List 1.   Number of electric network nodes.                                                   37      6000  (LBUS)
     Size List 2.   Number of electric network branches.                                                39     10000  (LBRNCH)
     Size List 3.   Number of data values in R, L, C tables.                                            45    192000  (LDATA)
     Size List 4.   Number of electric network sources.                                                  3       900  (LEXCT)
     Size List 5.   Storage for [Y] and triangularized [Y].   No. times =    3     Factors =    66     189    420000  (LYMAT)
     Size List 6.   Number of entries in switch table.                  No. flops = 18                  21      1200  (LSWTCH)
     Size List 7.   Number of distinct ALPHANUMERIC data names plus program SPY variables.              25     15000  (LSIZE7)
     Size List 8.   History points of distributed lines.                                              5754    120000  (LPAST)
     Size List 9.   Number of nonlinear elements.                                                        0      2250  (LNONL)
     Size List 10.  Points of nonlinear characteristics.                                                 0      3800  (LCHAR)
     Size List 11.  Number of Type-59 S.M. outputs.                                                      0       720  (LSMOUT)
     Size List 12.  Total number of EMTP output variables.                                              55      2000  (LSIZ12)
     Size List 13.  Working space for batch/SPY plotting.                                            -9999     72800  (LSIZ13)
     Size List 14.  S.M./U.M. connections to TACS.                                                   -9999       510  (LBSTAC)
     Size List 15.  Character storage in bytes for MODELS.                                            3298     90000  (LCTACS)
     Size List 16.  Total number of Type-59 S.M. masses.                                                 0       800  (LIMASS)
     Size List 17.  Number of Type-59 Synchronous machines.                                              0        90  (LSYN)
     Size List 18.  Branch and switch power/energy outputs.                                              0       254  (MAXPE)
     Size List 19.  Total floating-point TACS table space.                                              23    120000  (LTACST)
     Size List 20.  Non-copied recursive convolution data.                                               0    100000  (LFSEM)
     Size List 21.  Total modal/phase [T] matrix storage.                                                9      3000  (LFD)
     Size List 22.  Total recursive convolution history.                                                 0     15000  (LHIST)
     Size List 23.  Giant vectors for renumbering, phasors;  also extrema accumulation.                  93    192000  (LSIZ23)
     Size List 24.  Peak phases of compensation for data.                                                0       120  (LCOMP)
     Size List 25.  Total table space for all U.M usage.                                             -9999     45000  (LSPCUM)
     Size List 26.  Square of max number of coupled phases.                                              9    260000  (LSIZ26)
     Size List 27.  Maximum number of MODELS top variables.                                             44       600  (LSIZ27)
     Size List 28.  MODELS.  Total work space is divided into INTEGER and REAL.  1st, REAL:           1780    210000  (LRTACS)
                             Second  and last,  statistics for INTEGER work space.                    6838         0  (LITACS)
     Size List 29.  RAM disk used by "TAPSAV" table saving (limit is "LABCOM" size LTLABL).          -9999       600  (LSIZ29)
     Size List 30.  Taku Noda frequency-dependent circuits.                                              0        19  (LSIZ30)
Timing figures characterizing central processor (CP) solution speed.  ----------------------------   CP sec  Wait sec  Real sec
     Data input time (through blank card ending branches) ....                                       0.016     0.000     0.016
     Node renumbering and phasor solution  ....                                                      0.016     0.000     0.016
     After phasor solution, but before time-step loop  ....                                          0.016     0.000     0.016
     Integration of equations (time-step loop)  ....                                                 0.891     0.000     0.891
     Plotting or STATISTICS termination overlays ....                                                0.000     0.000     0.000
                                                                                                    ---------------------------
                                                                                          Totals      0.938     0.000     0.938

