   ---   236   cards of disk file read into card cache cells  1   onward.
 Comment card is ignored.      |C   LBUS  LBRNCH   LDATA   LEXCT   LYMAT  LSWTCH
 Limit CIDEAL cards =   200    |CARDS        200 { Limit of CIDEAL will be 2 mor
 1st card (Lists  1-10).       |    6000   10000  192000     900  420000    120
 Comment card is ignored.      |C LSMOUT  LSIZ12  LSIZ13  LBSTAC  LCTACS  LIMASS
 2nd card (Lists 11-20).       |     720    2000   72800     510   90000     80
 Comment card is ignored.      |C    LFD   LHIST  LSIZ23   NCOMP  LSPCUM  LSIZ26
 3rd card (Lists 21-30).       |    3000   15000  192000     120   45000  26000
 4th card (Lists 31-32).       |     200     300     { Optional card for Lists
 Comment card is ignored.      |C  LWORK  LMARTI
 Supplemental offsets.         |  840000     742
 <===> Done with  "/"-card sorting by data class.    Remember that the source file appears different from interpreted input data.
Alternative Transients Program (ATP),  GNU Linux or DOS.  All rights reserved by Can/Am user group of Portland, Oregon, USA.
 Date (dd-mth-yy) and time of day (hh.mm.ss) = 28-Feb-22  19:23:46   Name of disk plot file is  draw6.3\bernal\energizacion1450.pl4
Consult the 860-page ATP Rule Book of the Can/Am EMTP User Group in Portland,  Oregon, USA.  Source code date is 12 August 2008.
Total size of LABCOM tables = 10913436 INTEGER words.  31 VARDIM  List Sizes follow:  6002  10K  192K  900  420K  1200  15K
  120K  2250  3800  720  2K  72800  510  90K  800  90  254  120K  100K  3K  15K  192K  120  45K  260K  600  210K  1100  60  200
--------------------------------------------------+--------------------------------------------------------------------------------
Descriptive interpretation of input data cards.   |  Input data card images are shown below, all 80 columns, character by character
                                                  0         1         2         3         4         5         6         7         8
                                                  012345678901234567890123456789012345678901234567890123456789012345678901234567890
--------------------------------------------------+--------------------------------------------------------------------------------
Comment card.   NUMDCD = 1.                       |C data:C:\ATP\ATPDRAW6.3\BERNAL\ENERGIZACION1450.ATP
Marker card preceding new EMTP data case.         |BEGIN NEW DATA CASE
Comment card.   NUMDCD = 3.                       |C --------------------------------------------------------
Comment card.   NUMDCD = 4.                       |C Generated by ATPDRAW  febrero, lunes 28, 2022
Comment card.   NUMDCD = 5.                       |C A Bonneville Power Administration program
Comment card.   NUMDCD = 6.                       |C by H. K. Høidalen at SEfAS/NTNU - NORWAY 1994-2016
Comment card.   NUMDCD = 7.                       |C --------------------------------------------------------
Comment card.   NUMDCD = 8.                       |C  dT  >< Tmax >< Xopt >< Copt ><Epsiln>
Misc. data.     1.000E-06   1.200E-01   5.000E+01 |   1.E-6     .12     50.
Misc. data.    500    1  0  1  1  0  0  0  0  0   |     500       1       0       1       1       0       0       0       0
  ///  Warning.  Nonzero XOPT or COPT differs from the power frequency of  6.00000000E+01  Hz.   Did the user really want this?
No TACS data,  but MODELS data begins (next).     |MODELS
      Another ordinary MODELS data card.          |OUTPUT
      Another ordinary MODELS data card.          |  AnVol
      Another ordinary MODELS data card.          |  LONG
      Another ordinary MODELS data card.          |  R0F
      Another ordinary MODELS data card.          |  R1F
      Another ordinary MODELS data card.          |  X0F
      Another ordinary MODELS data card.          |  X1F
      Another ordinary MODELS data card.          |  RDIVX
      Another ordinary MODELS data card.          |  RINSER
      Another ordinary MODELS data card.          |  CLOSE1
      Another ordinary MODELS data card.          |  RPpos
      Another ordinary MODELS data card.          |  RPcero
      Another ordinary MODELS data card.          |  LPpos
      Another ordinary MODELS data card.          |  LPcero
      Another ordinary MODELS data card.          |  CPpos
      Another ordinary MODELS data card.          |  CPcero
      Another ordinary MODELS data card.          |  Xp
      Another ordinary MODELS data card.          |  CR
      Another ordinary MODELS data card.          |  SIMET
      Another ordinary MODELS data card.          |  ENC1
      Another ordinary MODELS data card.          |  ENC2
      Another ordinary MODELS data card.          |  ENC1AS
      Another ordinary MODELS data card.          |  ENC2AS
      Another ordinary MODELS data card.          |MODEL DEFAULT
      Another ordinary MODELS data card.          |DATA AnVol,LONG,R0F,R1F,X0F,X1F,RDIVX,RINSER,CLOSE1,RPpos,RPcero,LPpos,LPcero
      Another ordinary MODELS data card.          |OUTPUT o1,o2,o3, o4, o5, o6, o7, o8, o9, o10, o11, o12, o13
      Another ordinary MODELS data card.          |VAR o1,o2,o3, o4, o5, o6, o7, o8, o9, o10, o11, o12, o13
      Another ordinary MODELS data card.          |INIT
      Another ordinary MODELS data card.          |  o1:=AnVol
      Another ordinary MODELS data card.          |  o2:=LONG
      Another ordinary MODELS data card.          |  o3:=R0F
      Another ordinary MODELS data card.          |  o4:=R1F
      Another ordinary MODELS data card.          |  o5:=X0F
      Another ordinary MODELS data card.          |  O6:=X1F
      Another ordinary MODELS data card.          |  o7:=RDIVX
      Another ordinary MODELS data card.          |  o8:=RINSER
      Another ordinary MODELS data card.          |  o9:=CLOSE1
      Another ordinary MODELS data card.          |  o10:=RPpos
      Another ordinary MODELS data card.          |  o11:=RPcero
      Another ordinary MODELS data card.          |  o12:=LPpos
      Another ordinary MODELS data card.          |  o13:=LPcero
      Another ordinary MODELS data card.          |
      Another ordinary MODELS data card.          |ENDINIT
      Another ordinary MODELS data card.          |EXEC
      Another ordinary MODELS data card.          |ENDEXEC
      Another ordinary MODELS data card.          |ENDMODEL
      Another ordinary MODELS data card.          |MODEL DEFAULT1
      Another ordinary MODELS data card.          |DATA CPpos,CPcero,Xp,CR,SIMET,ENC1,ENC2,ENC1AS,ENC2AS
      Another ordinary MODELS data card.          |OUTPUT o1, o2, o3, o4, o5, o6, o7, o8, o9
      Another ordinary MODELS data card.          |VAR o1, o2, o3, o4, o5, o6, o7, o8, o9
      Another ordinary MODELS data card.          |INIT
      Another ordinary MODELS data card.          |  o1:=CPpos
      Another ordinary MODELS data card.          |  o2:=CPcero
      Another ordinary MODELS data card.          |  o3:=Xp
      Another ordinary MODELS data card.          |  o4:=CR
      Another ordinary MODELS data card.          |  o5:=SIMET
      Another ordinary MODELS data card.          |  o6:=ENC1
      Another ordinary MODELS data card.          |  o7:=ENC2
      Another ordinary MODELS data card.          |  o8:=ENC1AS
      Another ordinary MODELS data card.          |  o9:=ENC2AS
      Another ordinary MODELS data card.          |
      Another ordinary MODELS data card.          |ENDINIT
      Another ordinary MODELS data card.          |EXEC
      Another ordinary MODELS data card.          |ENDEXEC
      Another ordinary MODELS data card.          |ENDMODEL
      Another ordinary MODELS data card.          |USE DEFAULT AS DEFAULT
      Another ordinary MODELS data card.          |DATA
      Another ordinary MODELS data card.          |  AnVol:=      0.0
      Another ordinary MODELS data card.          |  LONG:= 93.89001
      Another ordinary MODELS data card.          |  R0F:=  2.63644
      Another ordinary MODELS data card.          |  R1F:= 2.221454
      Another ordinary MODELS data card.          |  X0F:= 10.89685
      Another ordinary MODELS data card.          |  X1F:= 9.181639
      Another ordinary MODELS data card.          |  RDIVX:= 0.241945
      Another ordinary MODELS data card.          |  RINSER:=     380.
      Another ordinary MODELS data card.          |  CLOSE1:= 0.041595
      Another ordinary MODELS data card.          |  RPpos:= 0.026766
      Another ordinary MODELS data card.          |  RPcero:= 0.245612
      Another ordinary MODELS data card.          |  LPpos:= 0.199445
      Another ordinary MODELS data card.          |  LPcero:= 1.340625
      Another ordinary MODELS data card.          |OUTPUT
      Another ordinary MODELS data card.          |  AnVol:=o1
      Another ordinary MODELS data card.          |  LONG:=o2
      Another ordinary MODELS data card.          |  R0F:=o3
      Another ordinary MODELS data card.          |  R1F:=o4
      Another ordinary MODELS data card.          |  X0F:=o5
      Another ordinary MODELS data card.          |  X1F:=o6
      Another ordinary MODELS data card.          |  RDIVX:=o7
      Another ordinary MODELS data card.          |  RINSER:=o8
      Another ordinary MODELS data card.          |  CLOSE1:=o9
      Another ordinary MODELS data card.          |  RPpos:=o10
      Another ordinary MODELS data card.          |  RPcero:=o11
      Another ordinary MODELS data card.          |  LPpos:=o12
      Another ordinary MODELS data card.          |  LPcero:=o13
      Another ordinary MODELS data card.          |ENDUSE
      Another ordinary MODELS data card.          |USE DEFAULT1 AS DEF
      Another ordinary MODELS data card.          |DATA
      Another ordinary MODELS data card.          |  CPpos:= 0.010635
      Another ordinary MODELS data card.          |  CPcero:= 0.007317
      Another ordinary MODELS data card.          |  Xp:= 4904.221
      Another ordinary MODELS data card.          |  CR:= 98.08442
      Another ordinary MODELS data card.          |  SIMET:=       1.
      Another ordinary MODELS data card.          |  ENC1:=       1.
      Another ordinary MODELS data card.          |  ENC2:=      0.0
      Another ordinary MODELS data card.          |  ENC1AS:=      0.0
      Another ordinary MODELS data card.          |  ENC2AS:=      0.0
      Another ordinary MODELS data card.          |OUTPUT
      Another ordinary MODELS data card.          |  CPpos:=o1
      Another ordinary MODELS data card.          |  CPcero:=o2
      Another ordinary MODELS data card.          |  Xp:=o3
      Another ordinary MODELS data card.          |  CR:=o4
      Another ordinary MODELS data card.          |  SIMET:=o5
      Another ordinary MODELS data card.          |  ENC1:=o6
      Another ordinary MODELS data card.          |  ENC2:=o7
      Another ordinary MODELS data card.          |  ENC1AS:=o8
      Another ordinary MODELS data card.          |  ENC2AS:=o9
      Another ordinary MODELS data card.          |ENDUSE
      Another ordinary MODELS data card.          |RECORD
      Another ordinary MODELS data card.          |  DEFAULT.o1 AS AnVOL
      Another ordinary MODELS data card.          |  DEFAULT.o2 AS LONG
      Another ordinary MODELS data card.          |  DEFAULT.o3 AS R0F
      Another ordinary MODELS data card.          |  DEFAULT.o4 AS R1F
      Another ordinary MODELS data card.          |  DEFAULT.o5 AS X0F
      Another ordinary MODELS data card.          |  DEFAULT.o6 AS X1F
      Another ordinary MODELS data card.          |  DEFAULT.o7 AS RDIVX
      Another ordinary MODELS data card.          |  DEFAULT.o8 AS RINSER
      Another ordinary MODELS data card.          |  DEFAULT.o9 AS CLOSE1
      Another ordinary MODELS data card.          |  DEFAULT.o10 AS RPpos
      Another ordinary MODELS data card.          |  DEFAULT.o11 AS RPcero
      Another ordinary MODELS data card.          |  DEFAULT.o12 AS LPpos
      Another ordinary MODELS data card.          |  DEFAULT.o13 AS LPcero
      Another ordinary MODELS data card.          |  DEF.o1 AS CPpos
      Another ordinary MODELS data card.          |  DEF.o2 AS CPcero
      Another ordinary MODELS data card.          |  DEF.o3 AS Xp
      Another ordinary MODELS data card.          |  DEF.o4 AS CR
      Another ordinary MODELS data card.          |  DEF.o5 AS SIMET
      Another ordinary MODELS data card.          |  DEF.o6 AS ENC1
      Another ordinary MODELS data card.          |  DEF.o7 AS ENC2
      Another ordinary MODELS data card.          |  DEF.o8 AS ENC1AS
      Another ordinary MODELS data card.          |  DEF.o9 AS ENC2AS
Termination of data for Laurent Dube`s MODELS.    |ENDMODELS
Comment card.   NUMDCD = 153.                     |C        1         2         3         4         5         6         7         8
Comment card.   NUMDCD = 154.                     |C 345678901234567890123456789012345678901234567890123456789012345678901234567890
Optional blank card follows last of MODELS data.  |BLANK MODELS
Comment card.   NUMDCD = 156.                     |C < n1 >< n2 ><ref1><ref2>< R  >< L  >< C  >
Comment card.   NUMDCD = 157.                     |C < n1 >< n2 ><ref1><ref2>< R  >< A  >< B  ><Leng><><>0
1st of coupled R-L.   2.63640E+00  3.46857E-02    |51IFUENASB1A              2.636410.896846548
2nd coil. 2.221E+00 2.923E-02 0.000E+00 0.000E+00 |52IFUENBSB1B              2.22159.1816385893
Zca, Zcc= 1.383E-01 1.820E-03 2.360E+00 3.105E-02 |53IFUENCSB1C
Series R-L-C.   1.000E+09  0.000E+00  0.000E+00   |  SB1A                      1.E9                                               0
Series R-L-C.   1.000E+09  0.000E+00  0.000E+00   |  SB1B                      1.E9                                               0
Series R-L-C.   1.000E+09  0.000E+00  0.000E+00   |  SB1C                      1.E9                                               0
Series R-L-C.   4.904E+01  7.805E+00  0.000E+00   |  RSNSHA                  49.0422452.1                                         0
Series R-L-C.   4.904E+01  7.805E+00  0.000E+00   |  RSNSHB                  49.0422452.1                                         0
Series R-L-C.   4.904E+01  7.805E+00  0.000E+00   |  RSNSHC                  49.0422452.1                                         0
Series R-L-C.   1.000E+09  0.000E+00  0.000E+00   |  RSNNHA                    1.E9                                               0
Series R-L-C.   1.000E+09  0.000E+00  0.000E+00   |  RSNNHB                    1.E9                                               0
Series R-L-C.   1.000E+09  0.000E+00  0.000E+00   |  RSNNHC                    1.E9                                               0
Series R-L-C.   1.000E+09  0.000E+00  0.000E+00   |  SE2A                      1.E9                                               0
Series R-L-C.   1.000E+09  0.000E+00  0.000E+00   |  SE2B                      1.E9                                               0
Series R-L-C.   1.000E+09  0.000E+00  0.000E+00   |  SE2C                      1.E9                                               0
Series R-L-C.   2.500E+02  0.000E+00  3.000E-10   |  X0001B                    250.       .0003                                   0
Series R-L-C.   2.500E+02  0.000E+00  3.000E-10   |  X0002B                    250.       .0003                                   0
Series R-L-C.   1.000E-06  0.000E+00  0.000E+00   |  X0001ALN1A               1.E-6                                               0
Series R-L-C.   1.000E-06  0.000E+00  0.000E+00   |  SB1A  X0002A             1.E-6                                               0
Series R-L-C.   1.000E-06  0.000E+00  0.000E+00   |  X0001BLN1B               1.E-6                                               0
Series R-L-C.   1.000E-06  0.000E+00  0.000E+00   |  SB1B  X0002B             1.E-6                                               0
Series R-L-C.   1.000E-06  0.000E+00  0.000E+00   |  X0001CLN1C               1.E-6                                               0
Series R-L-C.   1.000E-06  0.000E+00  0.000E+00   |  SB1C  X0002C             1.E-6                                               0
Series R-L-C.   3.800E+02  0.000E+00  0.000E+00   |  XX0005X0002A              380.                                               0
Series R-L-C.   3.800E+02  0.000E+00  0.000E+00   |  XX0003X0002B              380.                                               0
Series R-L-C.   3.800E+02  0.000E+00  0.000E+00   |  XX0004X0002C              380.                                               0
Series R-L-C.   2.500E+02  0.000E+00  3.000E-10   |  X0001A                    250.       .0003                                   0
Series R-L-C.   1.000E+06  0.000E+00  0.000E+00   |  X0001AX0002A              1.E6                                               0
Series R-L-C.   1.000E+06  0.000E+00  0.000E+00   |  X0001BX0002B              1.E6                                               0
Series R-L-C.   1.000E+06  0.000E+00  0.000E+00   |  X0001CX0002C              1.E6                                               0
Series R-L-C.   2.500E+02  0.000E+00  3.000E-10   |  X0002C                    250.       .0003                                   0
Series R-L-C.   2.500E+02  0.000E+00  3.000E-10   |  X0002A                    250.       .0003                                   0
Series R-L-C.   2.500E+02  0.000E+00  3.000E-10   |  X0001C                    250.       .0003                                   0
Series R-L-C.   1.250E+02  0.000E+00  6.000E-10   |  X0001AX0002A              125.       .0006                                   0
Series R-L-C.   1.250E+02  0.000E+00  6.000E-10   |  X0001BX0002B              125.       .0006                                   0
Series R-L-C.   1.250E+02  0.000E+00  6.000E-10   |  X0001CX0002C              125.       .0006                                   0
 2.456E-01 1.341E+00 7.320E-03 7.635E+02 5.247E-04|-1LN1A  VFF2A             .245611.3406.00732 93.89 0 0                         0
 2.677E-02 1.994E-01 1.064E-02 2.443E+02 2.440E-04|-2LN1B  VFF2B             .02677.19945.01064 93.89 0 0                         0
3rd or later transposed distributed phase.        |-3LN1C  VFF2C                                                                  0
Blank card ending branches.  IBR, NTOT = 39  31   |BLANK BRANCH
Comment card.   NUMDCD = 198.                     |C < n 1>< n 2>< Tclose ><Top/Tde ><   Ie   ><Vf/CLOP ><  type  >
Switch.  -1.00E+00  1.00E+01  0.00E+00  0.00E+00  |  LN1A  COMPA        -1.       10.                                             0
Switch.  -1.00E+00  1.00E+01  0.00E+00  0.00E+00  |  LN1B  COMPB        -1.       10.                                             0
Switch.  -1.00E+00  1.00E+01  0.00E+00  0.00E+00  |  LN1C  COMPC        -1.       10.                                             0
Switch.  -1.00E+00  1.00E+01  0.00E+00  0.00E+00  |  VFF2A RSNNHA       -1.       10.                                             0
Switch.  -1.00E+00  1.00E+01  0.00E+00  0.00E+00  |  VFF2B RSNNHB       -1.       10.                                             0
Switch.  -1.00E+00  1.00E+01  0.00E+00  0.00E+00  |  VFF2C RSNNHC       -1.       10.                                             0
Switch.   2.00E+00 -1.00E+00  0.00E+00  0.00E+00  |  VFF2A SE2A          2.       -1.                                             0
Switch.   2.00E+00 -1.00E+00  0.00E+00  0.00E+00  |  VFF2B SE2B          2.       -1.                                             0
Switch.   2.00E+00 -1.00E+00  0.00E+00  0.00E+00  |  VFF2C SE2C          2.       -1.                                             0
Switch.   4.16E-02  1.00E+03  0.00E+00  0.00E+00  |  X0001BXX0003.041594693      1.E3                                             0
Switch.   4.16E-02  1.00E+03  0.00E+00  0.00E+00  |  X0001CXX0004.041594693      1.E3                                             0
Switch.   4.91E-02  1.00E+03  0.00E+00  0.00E+00  |  XX0005X0002A.049094693      1.E3                                             0
Switch.   4.91E-02  1.00E+03  0.00E+00  0.00E+00  |  XX0003X0002B.049094693      1.E3                                             0
Switch.   4.91E-02  1.00E+03  0.00E+00  0.00E+00  |  XX0004X0002C.049094693      1.E3                                             0
Switch.   4.16E-02  1.00E+03  0.00E+00  0.00E+00  |  X0001AXX0005.041594693      1.E3                                             0
Permanently-closed switch used for metering.      |  VFUENAIFUENA                                        MEASURING                1
Permanently-closed switch used for metering.      |  VFUENBIFUENB                                        MEASURING                1
Permanently-closed switch used for metering.      |  VFUENCIFUENC                                        MEASURING                1
Permanently-closed switch used for metering.      |  COMPA RSNSHA                                        MEASURING                1
Permanently-closed switch used for metering.      |  COMPB RSNSHB                                        MEASURING                1
Permanently-closed switch used for metering.      |  COMPC RSNSHC                                        MEASURING                1
Blank card ending switches.   KSWTCH = 21.        |BLANK SWITCH
Comment card.   NUMDCD = 221.                     |C < n 1><>< Ampl.  >< Freq.  ><Phase/T0><   A1   ><   T1   >< TSTART >< TSTOP  >
Source.   4.29E+05  5.00E+01  0.00E+00 -1.00E+00  |14VFUENA  428660.705       50.                                     -1.      100.
Source.   4.29E+05  5.00E+01 -1.20E+02 -1.00E+00  |14VFUENB  428660.705       50.     -120.                           -1.      100.
Source.   4.29E+05  5.00E+01 -2.40E+02 -1.00E+00  |14VFUENC  428660.705       50.     -240.                           -1.      100.
Blank card ends electric sources.  KCONST = 3     |BLANK SOURCE
Pi-equivalent branches of distributed circuits are added to the table of List Size 3 between indices  40   and  45.

Sinusoidal steady-state phasor solution, branch by branch.   All flows are away from a bus,  and the real part,  magnitude,  or  "P"
is printed above the imaginary part,  the angle,  or  "Q".   The first solution frequency  =  5.00000000E+01  Hertz.
  Bus K                        Phasor  node  voltage              Phasor  branch  current               Power flow       Power loss
             Bus M         Rectangular            Polar          Rectangular            Polar            P  and  Q        P  and  Q

 IFUENA                    428660.705       428660.705      .43034846758688  .44586974577168      92236.738755731  .22081691138875
                                  0.0              0.0      .11661915211543       15.1623092      -24995.02398115        0.9126541

            SB1A      428660.81973579  428660.81975646      -.4303484675869  .44586974577168      -92236.51793882
                       -4.21037354327       -0.0005628      -.1166191521154     -164.8376908      24995.936635248

 IFUENB                  -214330.3525       428660.705      -.1141790854959  .44586974577199      92236.738755922  .22081691138809
                      -371231.0601341     -120.0000000      -.4310022814674     -104.8376908      -24995.02398071        0.9126541

            SB1B      -214334.0561583  428660.81975646      .11417908549591  .44586974577199      -92236.51793901
                      -371229.0543115     -120.0005628      .43100228146739       75.1623092      24995.936634804

 IFUENC                  -214330.3525       428660.705      -.3161693820852  .44586974576678      92236.738755081  .22081691138425
                      371231.06013415      120.0000000      .31438312935337      135.1623092      -24995.02397954        0.9126541

            SB1C      -214326.7635774  428660.81975646      .31616938208517  .44586974576678      -92236.51793817
                      371233.26468502      119.9994372      -.3143831293534      -44.8376908      24995.936633634

 SB1A                 428660.81973579  428660.81975646      .42866081974E-3  .42866081976E-3      91.875049197142  91.875049197142
                       -4.21037354327       -0.0005628      -.4210373543E-8       -0.0005628      -.886737617E-19        0.0000000

            TERRA                 0.0              0.0      -.4286608197E-3  .42866081976E-3                  0.0
                                  0.0              0.0      .42103735433E-8      179.9994372                  0.0

 SB1B                 -214334.0561583  428660.81975646      -.2143340562E-3  .42866081976E-3      91.875049197142  91.875049197142
                      -371229.0543115     -120.0005628      -.3712290543E-3     -120.0005628      -.111022302E-14        0.0000000

            TERRA                 0.0              0.0      .21433405616E-3  .42866081976E-3                  0.0
                                  0.0              0.0      .37122905431E-3       59.9994372                  0.0

 SB1C                 -214326.7635774  428660.81975646      -.2143267636E-3  .42866081976E-3      91.875049197142  91.875049197142
                      371233.26468502      119.9994372      .37123326469E-3      119.9994372      -.624500451E-15        0.0000000

            TERRA                 0.0              0.0      .21432676358E-3  .42866081976E-3                  0.0
                                  0.0              0.0      -.3712332647E-3      -60.0005628                  0.0

 RSNSHA               -406.3891430927  4671.9153122422      1.8939771163239  1.9048901796017      88.977062348923  88.977062348923
                      4654.2067583144       94.9902117      .20361060675807        6.1359746      4448.8531174461     4448.8531174

            TERRA                 0.0              0.0      -1.893977116324  1.9048901796017                  0.0
                                  0.0              0.0      -.2036106067581     -173.8640254                  0.0

 RSNSHB               4233.8558587113  4671.9153122417      -.7706566002295  1.9048901796015      88.977062348906  88.977062348906
                      -1975.160057417      -25.0097883      -1.742037600302     -113.8640254      4448.8531174453     4448.8531174

            TERRA                 0.0              0.0      .77065660022947  1.9048901796015                  0.0
                                  0.0              0.0      1.7420376003017       66.1359746                  0.0

 RSNSHC               -3827.466715619  4671.9153122416      -1.123320516094  1.9048901796014        88.9770623489    88.9770623489
                      -2679.046700897     -145.0097883      1.5384269935436      126.1359746       4448.853117445     4448.8531174

            TERRA                 0.0              0.0      1.1233205160943  1.9048901796014                  0.0
                                  0.0              0.0      -1.538426993544      -53.8640254                  0.0

 RSNNHA               -405.7414372218  4685.6774179597      -.4057414372E-6   .4685677418E-5      .01097778643259  .01097778643259
                      4668.0774148785       94.9675682      .46680774149E-5       94.9675682      -.960323604E-19        0.0000000

            TERRA                 0.0              0.0      .40574143722E-6   .4685677418E-5                  0.0
                                  0.0              0.0      -.4668077415E-5      -85.0324318                  0.0

 RSNNHB               4245.5443467276  4685.6774179593      .42455443467E-5   .4685677418E-5      .01097778643259  .01097778643259
                      -1982.656315437      -25.0324318      -.1982656315E-5      -25.0324318      .1325606562E-18        0.0000000

            TERRA                 0.0              0.0      -.4245544347E-5   .4685677418E-5                  0.0
                                  0.0              0.0      .19826563154E-5      154.9675682                  0.0

 RSNNHC               -3839.802909506  4685.6774179591       -.383980291E-5   .4685677418E-5      .01097778643259  .01097778643259
                      -2685.421099441     -145.0324318      -.2685421099E-5     -145.0324318      .4230929572E-18        0.0000000

            TERRA                 0.0              0.0      .38398029095E-5   .4685677418E-5                  0.0
                                  0.0              0.0      .26854210994E-5       34.9675682                  0.0

 X0001B               4233.8558585622  4671.9153122802      .18616385168E-3  .44031764458E-3      .24234953516E-4  .24234953516E-4
                      -1975.160057828      -25.0097883      .39902712747E-3       64.9888617      -1.028563372694       -1.0285634

            TERRA                 0.0              0.0      -.1861638517E-3  .44031764458E-3                  0.0
                                  0.0              0.0      -.3990271275E-3     -115.0111383                  0.0

 X0002B               -214334.0561582  428660.81975603      .03498703811198  .04040033045561      .20402333761547  .20402333761547
                      -371229.0543111     -120.0005628      -.0202013332499      -30.0019128      -8659.019383354    -8659.0193834

            TERRA                 0.0              0.0       -.034987038112  .04040033045561                  0.0
                                  0.0              0.0      .02020133324989      149.9980872                  0.0

 X0001A               -406.3891426623  4671.9153122807      .43038579633503  .43708939462051      90.007011708734  .95523569436E-7
                      4654.2067583906       94.9902117      .07625749276485       10.0476180      1017.0473495621        0.0000000

            LN1A      -406.3891430927  4671.9153122422       -.430385796335  .43708939462051      -90.00701161321
                      4654.2067583144       94.9902117      -.0762574927649     -169.9523820      -1017.047349562

 SB1A                 428660.81973579  428660.81975646      .42992178350687  .44545793011851      92145.066565058  .99216379112E-7
                       -4.21037354327       -0.0005628      .11661915610972       15.1766641       -24995.9365931              0.0

            X0002A    428660.81973536  428660.81975603      -.4299217835069  .44545793011851      -92145.06656496
                      -4.210373659889       -0.0005628      -.1166191561097     -164.8233359      24995.936593096

 X0001B               4233.8558585622  4671.9153122802      -.1491516741225  .43708907250395      90.007411164996  .95523428639E-7
                      -1975.160057828      -25.0097883      -.4108535449632     -109.9523558      1017.0465588192              0.0

            LN1B      4233.8558587113  4671.9153122417      .14915167412255  .43708907250395      -90.00741106947
                      -1975.160057417      -25.0097883      .41085354496317       70.0476442      -1017.046558819

 SB1B                 -214334.0561583  428660.81975646      -.1139706000686  .44544710044869      92143.269306816  .99211554527E-7
                      -371229.0543115     -120.0005628      -.4306202754378     -104.8243512      -24993.69610792        0.0000000

            X0002B    -214334.0561582  428660.81975603      .11397060006857  .44544710044869      -92143.26930672
                      -371229.0543111     -120.0005628      .43062027543783       75.1756488      24993.696107923

 X0001C                 -3827.4667159  4671.9153122801      -.2812334969349  .43708917865996       90.00639505318  .95523475047E-7
                      -2679.046700563     -145.0097883        .334596279572      130.0475858      1017.0468976884              0.0

            LN1C      -3827.466715619  4671.9153122416      .28123349693487  .43708917865996      -90.00639495766
                      -2679.046700897     -145.0097883       -.334596279572      -49.9524142      -1017.046897688

 SB1C                 -214326.7635774  428660.81975646      -.3159511834383  .44546627130513      92147.649722002  .99220102356E-7
                      371233.26468502      119.9994372      .31403033062816      135.1746979       -24993.2424401        0.0000000

            X0002C    -214326.7635771  428660.81975603       .3159511834383  .44546627130513       -92147.6497219
                      371233.26468471      119.9994372      -.3140303306282      -44.8253021      24993.242440105

 XX0005               428660.81973536  428660.81975603                  0.0              0.0                  0.0              0.0
                      -4.210373659889       -0.0005628                  0.0              0.0                  0.0              0.0

            X0002A    428660.81973536  428660.81975603                  0.0              0.0                  0.0
                      -4.210373659889       -0.0005628                  0.0              0.0                  0.0

 XX0003               -214334.0561582  428660.81975603                  0.0              0.0                  0.0              0.0
                      -371229.0543111     -120.0005628                  0.0              0.0                  0.0              0.0

            X0002B    -214334.0561582  428660.81975603                  0.0              0.0                  0.0
                      -371229.0543111     -120.0005628                  0.0              0.0                  0.0

 XX0004               -214326.7635771  428660.81975603                  0.0              0.0                  0.0              0.0
                      371233.26468471      119.9994372                  0.0              0.0                  0.0              0.0

            X0002C    -214326.7635771  428660.81975603                  0.0              0.0                  0.0
                      371233.26468471      119.9994372                  0.0              0.0                  0.0

 X0001A               -406.3891426623  4671.9153122807       -.438649555E-3  .44031764458E-3      .24234953516E-4  .24234953516E-4
                      4654.2067583906       94.9902117      -.3829093892E-4     -175.0111383      -1.028563372694       -1.0285634

            TERRA                 0.0              0.0      .43864955502E-3  .44031764458E-3                  0.0
                                  0.0              0.0      .38290938916E-4        4.9888617                  0.0

 X0001A               -406.3891426623  4671.9153122807       -.429067208878  .42909249653723      98.024745829924  92060.185292275
                      4654.2067583906       94.9902117      .00465841713205      179.3779596      -997.5371866097        0.0000000

            X0002A    428660.81973536  428660.81975603      .42906720887802  .42909249653723      91962.160546445
                      -4.210373659889       -0.0005628      -.0046584171321       -0.6220404      997.53718660971

 X0001B               4233.8558585622  4671.9153122802      .21856791201679  .42909249653723      98.024745829877  92060.185292275
                      -1975.160057828      -25.0097883      .36925389425322       59.3779596      -997.5371866096        0.0000000

            X0002B    -214334.0561582  428660.81975603      -.2185679120168  .42909249653723      91962.160546445
                      -371229.0543111     -120.0005628      -.3692538942532     -120.6220404      997.53718660962

 X0001C                 -3827.4667159  4671.9153122801      .21049929686123  .42909249653723      98.024745829944  92060.185292275
                      -2679.046700563     -145.0097883      -.3739123113853      -60.6220404      -997.5371866096        0.0000000

            X0002C    -214326.7635771  428660.81975603      -.2104992968612  .42909249653723      91962.160546445
                      371233.26468471      119.9994372      .37391231138527      119.3779596      997.53718660957

 X0002C               -214326.7635771  428660.81975603      -.0349883868407  .04040033045561      .20402333761545  .20402333761545
                      371233.26468471      119.9994372      -.0201989971832     -150.0019128      -8659.019383354    -8659.0193834

            TERRA                 0.0              0.0      .03498838684071  .04040033045561                  0.0
                                  0.0              0.0       .0201989971832       29.9980872                  0.0

 X0002A               428660.81973536  428660.81975603      .13487287284E-5  .04040033045561      .20402333761527  .20402333761527
                      -4.210373659889       -0.0005628      .04040033043309       89.9980872      -8659.019383354    -8659.0193834

            TERRA                 0.0              0.0      -.1348728728E-5  .04040033045561                  0.0
                                  0.0              0.0      -.0404003304331      -90.0019128                  0.0

 X0001C                 -3827.4667159  4671.9153122801      .25248570335E-3  .44031764458E-3      .24234953516E-4  .24234953516E-4
                      -2679.046700563     -145.0097883      -.3607361886E-3      -55.0111383      -1.028563372694       -1.0285634

            TERRA                 0.0              0.0      -.2524857033E-3  .44031764458E-3                  0.0
                                  0.0              0.0      .36073618855E-3      124.9888617                  0.0

 X0001A               -406.3891426623  4671.9153122807      -.8799965675E-3  .08088203006746      -188.0308943643  .40886892423958
                      4654.2067583906       94.9902117       -.080877242744      -90.6233904      -18.48165965573   -17352.9360985

            X0002A    428660.81973536  428660.81975603       .8799965675E-3  .08088203006746      188.43976328853
                      -4.210373659889       -0.0005628      .08087724274402       89.3766096      -17334.45443885

 X0001B               4233.8558585622  4671.9153122802      -.0696017485206  .08088203006746      -188.0308943643  .40886892423985
                      -1975.160057828      -25.0097883      .04120072075471      149.3766096      -18.48165965572   -17352.9360985

            X0002B    -214334.0561582  428660.81975603      .06960174852061  .08088203006746      188.43976328852
                      -371229.0543111     -120.0005628      -.0412007207547      -30.6233904      -17334.45443885

 X0001C                 -3827.4667159  4671.9153122801      .07048174508811  .08088203006746      -188.0308943643  .40886892424014
                      -2679.046700563     -145.0097883      .03967652198931       29.3766096      -18.48165965573   -17352.9360985

            X0002C    -214326.7635771  428660.81975603      -.0704817450881  .08088203006746      188.43976328851
                      371233.26468471      119.9994372      -.0396765219893     -150.6233904      -17334.45443885

 LN1A                 -406.3891430927  4671.9153122422      -1.463591245063  1.4691216054246      1.0286251889051  1.0176474024677
                      4654.2067583144       94.9902117       -.127353676431     -175.0269617      -3431.805707808    -3431.8057078

            VFF2A     -405.7414372218  4685.6774179597      .40574148863E-6    .468567742E-5      -.0109777864375
                      4668.0774148785       94.9675682      -.4668077412E-5      -85.0324311      .12046688356E-9

 LN1B                 4233.8558587113  4671.9153122417      .62150410347686  1.4691216054244      1.0286251889762  1.0176474024981
                      -1975.160057417      -25.0097883      1.3311840371962       64.9730383      -3431.805707807    -3431.8057078

            VFF2B     4245.5443467276  4685.6774179593      -.4245544361E-5  .46856774374E-5       -.010977786478
                      -1982.656315437      -25.0324318      .19826563314E-5      154.9675681      -.199858109E-10

 LN1C                 -3827.466715619  4671.9153122416      .84208714158592  1.4691216054243       1.028625188901  1.0176474024682
                      -2679.046700897     -145.0097883      -1.203830360765      -55.0269617      -3431.805707807    -3431.8057078

            VFF2C     -3839.802909506  4685.6774179591      .38398029238E-5   .4685677418E-5      -.0109777864328
                      -2685.421099441     -145.0324318      .26854210792E-5       34.9675679      -.580300456E-10
     Total network loss  P-loss  by summing injections =   2.767256904758E+05

Output for steady-state phasor switch currents.
      Node-K    Node-M            I-real            I-imag            I-magn          Degrees        Power            Reactive
      LN1A      COMPA         1.89397703E+00    2.03611908E-01    1.90489023E+00       6.1360    8.89801080E+01    4.44885318E+03
      LN1B      COMPB        -7.70656134E-01   -1.74203750E+00    1.90488990E+00    -113.8640    8.89779530E+01    4.44885245E+03
      LN1C      COMPC        -1.12332061E+00    1.53842670E+00    1.90489000E+00     126.1360    8.89776375E+01    4.44885269E+03
      VFF2A     RSNNHA       -4.05741501E-07    4.66807741E-06    4.68567742E-06      94.9676    1.09777864E-02   -1.49816154E-10
      VFF2B     RSNNHB        4.24554435E-06   -1.98265633E-06    4.68567743E-06     -25.0324    1.09777865E-02    3.26546088E-11
      VFF2C     RSNNHC       -3.83980291E-06   -2.68542107E-06    4.68567740E-06    -145.0324    1.09777864E-02    6.26896484E-11
      VFF2A     SE2A              Open              Open              Open             Open          Open              Open
      VFF2B     SE2B              Open              Open              Open             Open          Open              Open
      VFF2C     SE2C              Open              Open              Open             Open          Open              Open
      X0001B    XX0003            Open              Open              Open             Open          Open              Open
      X0001C    XX0004            Open              Open              Open             Open          Open              Open
      XX0005    X0002A            Open              Open              Open             Open          Open              Open
      XX0003    X0002B            Open              Open              Open             Open          Open              Open
      XX0004    X0002C            Open              Open              Open             Open          Open              Open
      X0001A    XX0005            Open              Open              Open             Open          Open              Open
      VFUENA    IFUENA        4.30348468E-01    1.16619152E-01    4.45869746E-01      15.1623    9.22367388E+04   -2.49950240E+04
      VFUENB    IFUENB       -1.14179085E-01   -4.31002281E-01    4.45869746E-01    -104.8377    9.22367388E+04   -2.49950240E+04
      VFUENC    IFUENC       -3.16169382E-01    3.14383129E-01    4.45869746E-01     135.1623    9.22367388E+04   -2.49950240E+04
      COMPA     RSNSHA        1.89397703E+00    2.03611908E-01    1.90489023E+00       6.1360    8.89801080E+01    4.44885318E+03
      COMPB     RSNSHB       -7.70656134E-01   -1.74203750E+00    1.90488990E+00    -113.8640    8.89779530E+01    4.44885245E+03
      COMPC     RSNSHC       -1.12332061E+00    1.53842670E+00    1.90489000E+00     126.1360    8.89776375E+01    4.44885269E+03

Solution at nodes with known voltage.   Nodes that are shorted together by switches are shown as a group of names, with the printed
result applying to the composite group.   The entry "MVA" is  SQRT( P**2 + Q**2 )  in units of power,  while  "P.F."  is the
associated power factor.
              Node                Source  node  voltage             Injected  source  current              Injected  source  power
              name         Rectangular            Polar          Rectangular            Polar            P  and  Q    MVA and P.F.

               VFUENA
              IFUENA       428660.705       428660.705      .43034846758572  .44586974576924      92236.738755482  95563.419779806
                                  0.0              0.0       .1166191521104       15.1623092      -24995.02398007        0.9651888

               VFUENB
              IFUENB     -214330.3525       428660.705      -.1141790854987  .44586974577227      92236.738756138  95563.419780457
                      -371231.0601341     -120.0000000      -.4310022814669     -104.8376908      -24995.02398014        0.9651888

               VFUENC
              IFUENC     -214330.3525       428660.705      -.3161693820847  .44586974576742      92236.738755284  95563.419779416
                      371231.06013415      120.0000000      .31438312935471      135.1623092      -24995.02397931        0.9651888

  +++  Node  "COMPC "  has no connected linear branches.  Add (to ground) the conductance  G = 1.00000000E-18  mhos.
  +++  Node  "COMPB "  has no connected linear branches.  Add (to ground) the conductance  G = 1.00000000E-18  mhos.
  +++  Node  "COMPA "  has no connected linear branches.  Add (to ground) the conductance  G = 1.00000000E-18  mhos.
Card of names for time-step loop output.          |  LN1A  LN1B  LN1C  COMPA COMPB COMPC SB1A  SB1B  SB1C  SE2A  SE2B  SE2C  VFF2A
Card of names for time-step loop output.          |  VFF2B VFF2C IFUENAIFUENBIFUENC
Card of names for time-step loop output.          |-5VFF2A VFF2B VFF2B VFF2C VFF2C VFF2A LN1A  LN1B  LN1B  LN1C  LN1C  LN1A
Card of names for time-step loop output.          |-5SB1A  SB1B  SB1B  SB1C  SB1C  SB1A
Blank card ending requests for output variables.  |BLANK OUTPUT

Column headings for the  55   EMTP output variables follow.  These are divided among the 5 possible classes as follows ....
  First  27     output variables are electric-network voltage differences (upper voltage minus lower voltage);
  Next   6     output variables are branch currents (flowing from the upper node to the lower node);
  Next   22     output variables belong to MODELS (with "MODELS" an internally-added upper name of pair).
   Step      Time      LN1A       LN1B       LN1C       COMPA      COMPB      COMPC      SB1A       SB1B       SB1C       SE2A
 

                       SE2B       SE2C       VFF2A      VFF2B      VFF2C      IFUENA     IFUENB     IFUENC     VFF2A      VFF2B
                                                                                                               VFF2B      VFF2C

                       VFF2C      LN1A       LN1B       LN1C       SB1A       SB1B       SB1C       VFUENA     VFUENB     VFUENC
                       VFF2A      LN1B       LN1C       LN1A       SB1B       SB1C       SB1A       IFUENA     IFUENB     IFUENC

                       COMPA      COMPB      COMPC      MODELS     MODELS     MODELS     MODELS     MODELS     MODELS     MODELS
                       RSNSHA     RSNSHB     RSNSHC     ANVOL      LONG       R0F        R1F        X0F        X1F        RDIVX

                       MODELS     MODELS     MODELS     MODELS     MODELS     MODELS     MODELS     MODELS     MODELS     MODELS
                       RINSER     CLOSE1     RPPOS      RPCERO     LPPOS      LPCERO     CPPOS      CPCERO     XP         CR

                       MODELS     MODELS     MODELS     MODELS     MODELS
                       SIMET      ENC1       ENC2       ENC1AS     ENC2AS
 ***      Phasor I(0) =  1.8939770E+00                     Switch  "LN1A  "  to  "COMPA "  closed in the steady-state.
 ***      Phasor I(0) = -7.7065613E-01                     Switch  "LN1B  "  to  "COMPB "  closed in the steady-state.
 ***      Phasor I(0) = -1.1233206E+00                     Switch  "LN1C  "  to  "COMPC "  closed in the steady-state.
 ***      Phasor I(0) = -4.0574150E-07                     Switch  "VFF2A "  to  "RSNNHA"  closed in the steady-state.
 ***      Phasor I(0) =  4.2455444E-06                     Switch  "VFF2B "  to  "RSNNHB"  closed in the steady-state.
 ***      Phasor I(0) = -3.8398029E-06                     Switch  "VFF2C "  to  "RSNNHC"  closed in the steady-state.
 ***      Phasor I(0) =  4.3034847E-01                     Switch  "VFUENA"  to  "IFUENA"  closed in the steady-state.
 ***      Phasor I(0) = -1.1417909E-01                     Switch  "VFUENB"  to  "IFUENB"  closed in the steady-state.
 ***      Phasor I(0) = -3.1616938E-01                     Switch  "VFUENC"  to  "IFUENC"  closed in the steady-state.
 ***      Phasor I(0) =  1.8939770E+00                     Switch  "COMPA "  to  "RSNSHA"  closed in the steady-state.
 ***      Phasor I(0) = -7.7065613E-01                     Switch  "COMPB "  to  "RSNSHB"  closed in the steady-state.
 ***      Phasor I(0) = -1.1233206E+00                     Switch  "COMPC "  to  "RSNSHC"  closed in the steady-state.
      0       0.0  -406.38914 4233.85586 -3827.4667 -406.38914 4233.85586 -3827.4667  428660.82 -214334.06 -214326.76        0.0
                          0.0        0.0 -405.74144 4245.54435 -3839.8029 428660.705 -214330.35 -214330.35 -4651.2858 8085.34726
                   -3434.0615  -4640.245 8061.32257 -3421.0776 642994.876 -7.2925809 -642987.58 .430348468 -.11417909 -.31616938
                   1.89397703 -.77065613 -1.1233206        0.0   93.89001    2.63644   2.221454   10.89685   9.181639    .241945
                         380.    .041595    .026766    .245612    .199445   1.340625    .010635    .007317   4904.221   98.08442
                          1.0        1.0        0.0        0.0        0.0
    500     .5E-3  -1129.4545 4490.70847 -3361.2539 -1129.4545 4490.70847 -3361.2539 423383.956 -153622.23 -269761.72        0.0
                          0.0        0.0  -1130.999 4503.43288 -3372.4339  423383.18 -153618.26 -269764.92 -5634.4319 7875.86675
                   -2241.4349  -5620.163  7851.9624 -2231.7994 577006.188 116139.492 -693145.68 .406860832 -.04537019 -.36149064
                   1.83880743 -.48865406 -1.3501536        0.0   93.89001    2.63644   2.221454   10.89685   9.181639    .241945
                         380.    .041595    .026766    .245612    .199445   1.340625    .010635    .007317   4904.221   98.08442
                          1.0        1.0        0.0        0.0        0.0
   1000     .1E-2  -1824.7257 4636.99328 -2812.2676 -1824.7257 4636.99328 -2812.2676 407681.888 -89127.675 -318554.21        0.0
                          0.0        0.0 -1828.3977 4650.42695 -2822.0293 407680.557 -89123.572 -318556.98 -6478.8246 7472.45625
                   -993.63164  -6461.719 7449.26089 -987.54193 496809.563 229426.538  -726236.1  .37329691 .024584888  -.3978818
                   1.73836015 -.19461888 -1.5437413        0.0   93.89001    2.63644   2.221454   10.89685   9.181639    .241945
                         380.    .041595    .026766    .245612    .199445   1.340625    .010635    .007317   4904.221   98.08442
                          1.0        1.0        0.0        0.0        0.0
   1500     .0015  -2475.0685  4669.1011 -2194.0326 -2475.0685  4669.1011 -2194.0326 381941.528 -22438.593 -359502.93        0.0
                          0.0        0.0 -2480.7834 4682.91625 -2202.1328 381939.485 -22434.368 -359505.12 -7163.6997 6885.04907
                   278.650619 -7144.1696 6863.13369 281.035899 404380.121 337064.341 -741444.46  .33054581  .09393231 -.42447812
                   1.59510858 .104207929  -1.699317        0.0   93.89001    2.63644   2.221454   10.89685   9.181639    .241945
                         380.    .041595    .026766    .245612    .199445   1.340625    .010635    .007317   4904.221   98.08442
                          1.0        1.0        0.0        0.0        0.0
   2000      .002  -3064.4457 4586.22956 -1521.7839 -3064.4457 4586.22956 -1521.7839 346796.392 44803.0545 -391599.45        0.0
                          0.0        0.0 -3072.0748 4600.09199 -1528.0171 346793.795 44807.2448 -391601.04 -7672.1668 6128.10914
                    1544.0577 -7650.6753 6108.01342 1542.66184 301993.337 436402.501 -738395.84 .279652087 .160968529 -.44062062
                   1.41258033 .400469225   -1.81305        0.0   93.89001    2.63644   2.221454   10.89685   9.181639    .241945
                         380.    .041595    .026766    .245612    .199445   1.340625    .010635    .007317   4904.221   98.08442
                          1.0        1.0        0.0        0.0        0.0
   2500     .0025  -3578.3835 4390.43856 -812.05504 -3578.3835 4390.43856 -812.05504 303111.929 110941.527 -414053.46        0.0
                          0.0        0.0 -3587.7329 4404.00384 -816.27095 303108.891 110945.554 -414054.45 -7991.7367 5220.27479
                   2771.46194 -7968.8221  5202.4936 2766.32848 192170.402 524994.983 -717165.38 .221870222 .224042253 -.44591248
                   1.19526969 .686870153 -1.8821397        0.0   93.89001    2.63644   2.221454   10.89685   9.181639    .241945
                         380.    .041595    .026766    .245612    .199445   1.340625    .010635    .007317   4904.221   98.08442
                          1.0        1.0        0.0        0.0        0.0
   3000      .003  -4004.2011 4086.53606 -82.334963 -4004.2011 4086.53606 -82.334963  251963.93 174348.209 -426312.14        0.0
                          0.0        0.0 -4015.0441   4099.472  -84.42791 251960.441 174352.016 -426312.46 -8114.5161 4183.89991
                   3930.61618 -8090.7372 4168.87102 3921.86614 77615.7211 600660.347 -678276.07 .158635604 .281594115 -.44022972
                   .948527545 .956357561 -1.9048849        0.0   93.89001    2.63644   2.221454   10.89685   9.181639    .241945
                         380.    .041595    .026766    .245612    .199445   1.340625    .010635    .007317   4904.221   98.08442
                          1.0        1.0        0.0        0.0        0.0
   3500     .0035  -4331.4276 3682.01232 649.415281 -4331.4276 3682.01232 649.415281 194611.675 233461.892 -428073.57        0.0
                          0.0        0.0 -4343.4909 3693.99719 649.493682 194607.888 233465.353 -428073.24 -8037.4881 3044.50351
                   4992.98456 -8013.4399 3032.59703 4980.84288 -38850.217 661535.459 -622685.24  .09148507 .332217072 -.42370214
                    .67842925 1.20229595 -1.8807254        0.0   93.89001    2.63644   2.221454   10.89685   9.181639    .241945
                         380.    .041595    .026766    .245612    .199445   1.340625    .010635    .007317   4904.221   98.08442
                          1.0        1.0        0.0        0.0        0.0
   4000      .004  -4551.9928 3186.82161 1365.17121 -4551.9928 3186.82161 1365.17121 132467.482 286826.945 -419294.43        0.0
                          0.0        0.0 -4564.9858 3197.56353 1367.42223 132463.443 286829.997 -419293.44 -7762.5493  1830.1413
                   5932.40798 -7738.8144  1821.6504 5917.16402 -154359.46 706121.373 -551761.91 .022091798 .374654786 -.39674658
                   .391625554 1.41863028 -1.8102563        0.0   93.89001    2.63644   2.221454   10.89685   9.181639    .241945
                         380.    .041595    .026766    .245612    .199445   1.340625    .010635    .007317   4904.221   98.08442
                          1.0        1.0        0.0        0.0        0.0
   4500     .0045  -4660.4798 2613.16426 2047.31559 -4660.4798 2613.16426 2047.31559 67061.4975 333129.369 -400190.87        0.0
                          0.0        0.0 -4674.0781 2622.39651  2051.6816 67057.3081 333131.936 -400189.24 -7296.4746 570.714914
                   6725.75972 -7273.6441 565.848664 6707.79544 -266067.87 733320.235 -467252.36 -.04785543 .407872254 -.36001682
                   .095179084 1.60003316 -1.6952127        0.0   93.89001    2.63644   2.221454   10.89685   9.181639    .241945
                         380.    .041595    .026766    .245612    .199445   1.340625    .010635    .007317   4904.221   98.08442
                          1.0        1.0        0.0        0.0        0.0
   5000      .005  -4654.2105 1975.16215 2679.04836 -4654.2105 1975.16215 2679.04836 4.20563466 371229.057 -371233.26        0.0
                          0.0        0.0 -4668.0791 1982.65734 2685.42176 -.45661E-7  371231.06 -371231.06 -6650.7364 -702.76442
                   7353.50085 -6629.3727  -703.8862 7333.25887 -371224.85 742462.319 -371237.47 -.11661938 .431044077  -.3144247
                   -.20361042 1.74203784 -1.5384272        0.0   93.89001    2.63644   2.221454   10.89685   9.181639    .241945
                         380.    .041595    .026766    .245612    .199445   1.340625    .010635    .007317   4904.221   98.08442
                          1.0        1.0        0.0        0.0        0.0
   5500     .0055  -4533.3288 1288.51986 3244.80891 -4533.3288 1288.51986 3244.80891 -67053.164  400187.84 -333134.68        0.0
                          0.0        0.0 -4547.1327 1294.09665 3253.03601 -67057.308 400189.244 -333131.94 -5841.2293 -1958.9394
                   7800.16867 -5821.8486 -1956.2891 7778.13768   -467241. 733322.517 -266081.51 -.18251345 .443603014 -.26108956
                   -.49738693 1.84114761 -1.3437607        0.0   93.89001    2.63644   2.221454   10.89685   9.181639    .241945
                         380.    .041595    .026766    .245612    .199445   1.340625    .010635    .007317   4904.221   98.08442
                          1.0        1.0        0.0        0.0        0.0
   6000      .006  -4300.8351 570.156777 3730.67837 -4300.8351 570.156777 3730.67837 -132459.49 419292.683  -286833.2        0.0
                          0.0        0.0  -4314.226 573.673634  3740.5524 -132463.44  419293.44   -286830. -4887.8997 -3166.8788
                   8054.77844 -4870.9919 -3160.5216 8031.51352 -551752.17  706125.88 -154373.71  -.2439099   .4452372  -.2013273
                   -.77891639 1.89492242 -1.1160063        0.0   93.89001    2.63644   2.221454   10.89685   9.181639    .241945
                         380.    .041595    .026766    .245612    .199445   1.340625    .010635    .007317   4904.221   98.08442
                          1.0        1.0        0.0        0.0        0.0
   6500     .0065  -3962.4321 -162.24978 4124.68189 -3962.4321 -162.24978 4124.68189 -194604.17 428073.126 -233468.95        0.0
                          0.0        0.0 -3975.0849  -160.8771 4135.96203 -194607.89  428073.24 -233465.35 -3814.2078 -4296.8391
                   8111.04696 -3800.1823 -4286.9317   8087.114  -622677.3 661542.081 -38864.784 -.29930371 .435909794 -.13660608
                   -1.0412662 1.90203792 -.86077157        0.0   93.89001    2.63644   2.221454   10.89685   9.181639    .241945
                         380.    .041595    .026766    .245612    .199445   1.340625    .010635    .007317   4904.221   98.08442
                          1.0        1.0        0.0        0.0        0.0
   7000      .007   -3526.464 -890.65963 4417.12362  -3526.464 -890.65963 4417.12362 -251957.11 426313.015 -174355.91        0.0
                          0.0        0.0 -3538.0659 -891.46558 4429.53149 -251960.44 426312.457 -174352.02 -2646.6003 -5320.9971
                   7967.59741 -2635.8044 -5307.7832 7943.58761 -678270.13 600668.921 77601.2048 -.34733001 .415849999 -.06851999
                   -1.2779763 1.86231889 -.58434257        0.0   93.89001    2.63644   2.221454   10.89685   9.181639    .241945
                         380.    .041595    .026766    .245612    .199445   1.340625    .010635    .007317   4904.221   98.08442
                          1.0        1.0        0.0        0.0        0.0
   7500     .0075  -3003.6593 -1597.1401 4600.79946 -3003.6593 -1597.1401 4600.79946   -303106. 414055.647 -110949.65        0.0
                          0.0        0.0 -3013.9262 -1600.1041 4614.03034 -303108.89 414054.446 -110945.55 -1413.8222 -6214.1344
                   7627.95659 -1406.5192 -6197.9396 7604.45878 -717161.64 525005.298 192156.346 -.38679636 .385546839  .00124952
                   -1.4832188  1.7767434  -.2935248        0.0   93.89001    2.63644   2.221454   10.89685   9.181639    .241945
                         380.    .041595    .026766    .245612    .199445   1.340625    .010635    .007317   4904.221   98.08442
                          1.0        1.0        0.0        0.0        0.0
   8000      .008  -2406.8997 -2264.2912 4671.19091 -2406.8997 -2264.2912 4671.19091 -346791.41 391602.854 -44811.447        0.0
                          0.0        0.0 -2415.5764 -2269.3414 4684.91778  -346793.8  391601.04 -44807.245 -146.23498 -6954.2592
                   7100.49416 -142.60843 -6935.4821 7078.09057 -738394.26 436414.302  301979.96 -.41674618 .345754078 .070992098
                   -1.6519392 1.64741876  .00452044        0.0   93.89001    2.63644   2.221454   10.89685   9.181639    .241945
                         380.    .041595    .026766    .245612    .199445   1.340625    .010635    .007317   4904.221   98.08442
                          1.0        1.0        0.0        0.0        0.0
   8500     .0085   -1750.872 -2875.6891 4626.56103  -1750.872 -2875.6891 4626.56103 -381937.68 359507.508 22430.1708        0.0
                          0.0        0.0 -1757.7452 -2882.7009  4640.4461 -381939.48 359505.117 22434.3679 1124.95573  -7523.147
                   6398.19129 1124.81713 -7502.2501 6377.43298 -741445.19 337077.338  404367.85 -.43642987 .297445469 .138984401
                   -1.7799836 1.47752907 .302454711        0.0   93.89001    2.63644   2.221454   10.89685   9.181639    .241945
                         380.    .041595    .026766    .245612    .199445   1.340625    .010635    .007317   4904.221   98.08442
                          1.0        1.0        0.0        0.0        0.0
   9000      .009  -1051.7271 -3416.2803 4468.00743 -1051.7271 -3416.2803 4468.00743 -407679.36 318559.886 89119.4758        0.0
                          0.0        0.0  -1056.631 -3425.0795  4481.7105 -407680.56 318556.985  89123.572 2368.44848   -7906.79
                   5538.34152 2364.55322 -7884.2878 5519.73454 -726239.25 229440.411 496798.838 -.44536943 .241813883 .203555547
                   -1.8641986  1.2712573 .592940886        0.0   93.89001    2.63644   2.221454   10.89685   9.181639    .241945
                         380.    .041595    .026766    .245612    .199445   1.340625    .010635    .007317   4904.221   98.08442
                          1.0        1.0        0.0        0.0        0.0
   9500     .0095   -326.6946 -3872.7467 4199.44134  -326.6946 -3872.7467 4199.44134 -423382.64  269768.27 153614.371        0.0
                          0.0        0.0 -329.50311 -3883.1192 4212.62234 -423383.18 269764.922 153618.258 3553.61611 -8095.7416
                   4542.12545 3546.05214 -8072.1881 4526.13595 -693150.91 116153.899 576997.012 -.44333996 .180226757 .263113206
                   -1.9025111 1.03368337 .868827587        0.0   93.89001    2.63644   2.221454   10.89685   9.181639    .241945
                         380.    .041595    .026766    .245612    .199445   1.340625    .010635    .007317   4904.221   98.08442
                          1.0        1.0        0.0        0.0        0.0
  10000       .01  406.389853 -4233.8571 3827.46725 406.389853 -4233.8571 3827.46725 -428660.81 214334.051 214326.758        0.0
                          0.0        0.0 405.742009 -4245.5456 3839.80355 -428660.71 214330.353 214330.352 4651.28757 -8085.3491
                   3434.06154 4640.24696 -8061.3244  3421.0774 -642994.86 7.29334929 642987.567  -.4303968 .114203256 .316193547
                   -1.8939774 .770656986 1.12332044        0.0   93.89001    2.63644   2.221454   10.89685   9.181639    .241945
                         380.    .041595    .026766    .245612    .199445   1.340625    .010635    .007317   4904.221   98.08442
                          1.0        1.0        0.0        0.0        0.0
  10500     .0105  1129.46354 -4490.7138 3361.25024 1129.46354 -4490.7138 3361.25024 -423383.96 153622.235 269761.727        0.0
                          0.0        0.0 1130.98653 -4503.4275 3372.44094 -423383.18 153618.258 269764.922 5634.41401 -7875.8684
                   2241.45441 5620.17732  -7851.964  2231.7867  -577006.2 -116139.49 693145.689 -.40685566 .045367593 .361488066
                   -1.8388077  .48865439 1.35015372        0.0   93.89001    2.63644   2.221454   10.89685   9.181639    .241945
                         380.    .041595    .026766    .245612    .199445   1.340625    .010635    .007317   4904.221   98.08442
                          1.0        1.0        0.0        0.0        0.0
  11000      .011  1824.72997 -4636.9961 2812.26616 1824.72997 -4636.9961 2812.26616 -407681.96 89127.7134 318554.251        0.0
                          0.0        0.0 1828.40289 -4650.4303 2822.02743 -407680.56  89123.572 318556.985 6478.83322 -7472.4578
                   993.624541  6461.7261 -7449.2623 987.536187 -496809.68 -229426.54 726236.216 -.37329248 -.02458711 .397879594
                   -1.7383604  .19461908 1.54374182        0.0   93.89001    2.63644   2.221454   10.89685   9.181639    .241945
                         380.    .041595    .026766    .245612    .199445   1.340625    .010635    .007317   4904.221   98.08442
                          1.0        1.0        0.0        0.0        0.0
  11500     .0115  2475.06067 -4669.0978 2194.03714 2475.06067 -4669.0978 2194.03714  -381941.5 22438.5773 359502.918        0.0
                          0.0        0.0 2480.78119 -4682.9157 2202.13456 -381939.48 22434.3679 359505.117 7163.69694 -6885.0503
                   -278.64662 7144.15848  -6863.135 -281.02353 -404380.07 -337064.34 741444.413 -.33054323 -.09393359 .424476819
                    -1.595109 -.10420818 1.69931764        0.0   93.89001    2.63644   2.221454   10.89685   9.181639    .241945
                         380.    .041595    .026766    .245612    .199445   1.340625    .010635    .007317   4904.221   98.08442
                          1.0        1.0        0.0        0.0        0.0
  12000      .012  3064.45072 -4586.2326 1521.78186 3064.45072 -4586.2326 1521.78186 -346796.37 -44803.067 391599.434        0.0
                          0.0        0.0  3072.0823 -4600.0962 1528.01392  -346793.8 -44807.245  391601.04 7672.17852 -6128.1101
                   -1544.0684  7650.6833 -6108.0144 -1542.6689  -301993.3  -436402.5   738395.8 -.27965091 -.16096912 .440620024
                   -1.4125805 -.40047009 1.81305035        0.0   93.89001    2.63644   2.221454   10.89685   9.181639    .241945
                         380.    .041595    .026766    .245612    .199445   1.340625    .010635    .007317   4904.221   98.08442
                          1.0        1.0        0.0        0.0        0.0
  12500     .0125  3578.38406 -4390.4392 812.055126 3578.38406 -4390.4392 812.055126 -303111.95 -110941.52 414053.466        0.0
                          0.0        0.0 3587.72926 -4404.0024 816.273139 -303108.89 -110945.55 414054.446 7991.73166 -5220.2755
                   -2771.4561 7968.82324 -5202.4943 -2766.3289 -192170.43 -524994.98 717165.415  -.2218744 -.22404017 .445914565
                   -1.1952696  -.6868707 1.88214011        0.0   93.89001    2.63644   2.221454   10.89685   9.181639    .241945
                         380.    .041595    .026766    .245612    .199445   1.340625    .010635    .007317   4904.221   98.08442
                          1.0        1.0        0.0        0.0        0.0
  13000      .013  4004.20145 -4086.5365  82.335015 4004.20145 -4086.5365  82.335015 -251963.92 -174348.21 426312.132        0.0
                          0.0        0.0 4015.04533 -4099.4729 84.4275299 -251960.44 -174352.02 426312.457 8114.51818 -4183.9004
                   -3930.6178 8090.73792 -4168.8715 -3921.8664 -77615.702 -600660.35 678276.049 -.15863324 -.28159529 .440228533
                   -.94852772 -.95635756 1.90488522        0.0   93.89001    2.63644   2.221454   10.89685   9.181639    .241945
                         380.    .041595    .026766    .245612    .199445   1.340625    .010635    .007317   4904.221   98.08442
                          1.0        1.0        0.0        0.0        0.0
  13500     .0135  4331.42735 -3682.0123 -649.41509 4331.42735 -3682.0123 -649.41509 -194611.69 -233461.89 428073.572        0.0
                          0.0        0.0 4343.49157 -3693.9976 -649.49396 -194607.89 -233465.35  428073.24 8037.48917 -3044.5036
                   -4992.9855 8013.43962 -3032.5972 -4980.8424  38850.201 -661535.46 622685.258 -.09148805 -.33221558 .423703637
                   -.67842913 -1.2022963  1.8807258        0.0   93.89001    2.63644   2.221454   10.89685   9.181639    .241945
                         380.    .041595    .026766    .245612    .199445   1.340625    .010635    .007317   4904.221   98.08442
                          1.0        1.0        0.0        0.0        0.0
  14000      .014  4551.99629 -3186.8233  -1365.173 4551.99629 -3186.8233  -1365.173 -132467.49 -286826.94 419294.431        0.0
                          0.0        0.0 4564.98871 -3197.5649 -1367.4238 -132463.44   -286830.  419293.44 7762.55364 -1830.1411
                   -5932.4125 7738.81955 -1821.6502 -5917.1693 154359.451 -706121.37 551761.921 -.02208887 -.37465625 .396745124
                   -.39162636 -1.4186306 1.81025656        0.0   93.89001    2.63644   2.221454   10.89685   9.181639    .241945
                         380.    .041595    .026766    .245612    .199445   1.340625    .010635    .007317   4904.221   98.08442
                          1.0        1.0        0.0        0.0        0.0
  14500     .0145  4660.48043 -2613.1643 -2047.3161 4660.48043 -2613.1643 -2047.3161 -67061.482 -333129.38 400190.858        0.0
                          0.0        0.0 4674.07687 -2622.3957 -2051.6812 -67057.308 -333131.94 400189.244 7296.47253 -570.71444
                   -6725.7581 7273.64473 -565.84817 -6707.7966 266067.895 -733320.23  467252.34 .047855698 -.40787238 .360016682
                   -.09517961 -1.6000332 1.69521282        0.0   93.89001    2.63644   2.221454   10.89685   9.181639    .241945
                         380.    .041595    .026766    .245612    .199445   1.340625    .010635    .007317   4904.221   98.08442
                          1.0        1.0        0.0        0.0        0.0
  % % % % % %   Suspended simulation;  plot data space exhausted;  SPY SPACE is required.   LIMBUF =  840000.
  % % % % % %   Suspended simulation;  plot data space exhausted;  SPY SPACE is required.   LIMBUF =  840000.
  +++  Time-sharing disabled.   Send  user-keyed interrupt to silence alarm.
   Current values.  INDBUF  INDBEG  LIMBUF  MFLUSH  NUMDCD  KCARD1  KCARD2
                    839994      50  840000    1000     230       1     231
Plot timespan now in memory (in sec) = 0.00000000E+00   1.49990000E-02
   ++++  Begin plot-data copy from memory to disk.   MFLUSH, INDBUF, N4, Tbeg,  Tend = 1001  839994       1  -1.00000E+00
1.00000E+19
  15000      .015  4654.20743 -1975.1602 -2679.0472 4654.20743 -1975.1602 -2679.0472 -4.2090068 -371229.05 371233.264        0.0
                          0.0        0.0  4668.0797 -1982.6573 -2685.4224 -.61533E-6 -371231.06  371231.06 6650.73696 702.765169
                   -7353.5021 6629.36766 703.886965 -7333.2546 371224.846 -742462.32 371237.473 .116618129 -.43104345 .314425325
                   .203610807 -1.7420381 1.53842729        0.0   93.89001    2.63644   2.221454   10.89685   9.181639    .241945
                         380.    .041595    .026766    .245612    .199445   1.340625    .010635    .007317   4904.221   98.08442
                          1.0        1.0        0.0        0.0        0.0
  15500     .0155  4533.33414  -1288.522 -3244.8121 4533.33414  -1288.522 -3244.8121 67053.1636 -400187.84 333134.676        0.0
                          0.0        0.0 4547.13598 -1294.0978 -3253.0382 67057.3081 -400189.24 333131.936 5841.23377 1958.94041
                   -7800.1742 5821.85617 1956.29009 -7778.1463 467241.004 -733322.52 266081.513 .182512537 -.44360256 .261090022
                   .497386907 -1.8411481 1.34376049        0.0   93.89001    2.63644   2.221454   10.89685   9.181639    .241945
                         380.    .041595    .026766    .245612    .199445   1.340625    .010635    .007317   4904.221   98.08442
                          1.0        1.0        0.0        0.0        0.0
  16000      .016  4300.83445 -570.15578 -3730.6787 4300.83445 -570.15578 -3730.6787 132459.475 -419292.68 286833.203        0.0
                          0.0        0.0 4314.22435 -573.67216 -3740.5522 132463.443 -419293.44 286829.997 4887.89652 3166.88003
                   -8054.7765 4870.99023 3160.52289 -8031.5131 551752.152 -706125.88 154373.728 .243911282 -.44523789 .201326611
                   .778916317 -1.8949228 1.11600607        0.0   93.89001    2.63644   2.221454   10.89685   9.181639    .241945
                         380.    .041595    .026766    .245612    .199445   1.340625    .010635    .007317   4904.221   98.08442
                          1.0        1.0        0.0        0.0        0.0
  16500     .0165  3962.43136 162.250881 -4124.6822 3962.43136 162.250881 -4124.6822 194604.187 -428073.13 233468.947        0.0
                          0.0        0.0 3975.08571 160.877435 -4135.9631 194607.888 -428073.24 233465.353 3814.20827 4296.84058
                   -8111.0488 3800.18048 4286.93312 -8087.1136 622677.321 -661542.08 38864.7597 .299304692 -.43591028  .13660559
                   1.04126639 -1.9020382 .860771874        0.0   93.89001    2.63644   2.221454   10.89685   9.181639    .241945
                         380.    .041595    .026766    .245612    .199445   1.340625    .010635    .007317   4904.221   98.08442
                          1.0        1.0        0.0        0.0        0.0
  17000      .017  3526.46457 890.660142 -4417.1247 3526.46457 890.660142 -4417.1247 251957.104 -426313.01 174355.908        0.0
                          0.0        0.0 3538.06647 891.466104 -4429.5326 251960.441 -426312.46 174352.016 2646.60037 5320.99868
                    -7967.599 2635.80443 5307.78485 -7943.5893 678270.117 -600668.92 -77601.196 .347327148 -.41584857 .068521424
                   1.27797675 -1.8623192 .584342482        0.0   93.89001    2.63644   2.221454   10.89685   9.181639    .241945
                         380.    .041595    .026766    .245612    .199445   1.340625    .010635    .007317   4904.221   98.08442
                          1.0        1.0        0.0        0.0        0.0
  17500     .0175  3003.66135 1597.13999 -4600.8013 3003.66135 1597.13999 -4600.8013  303105.99 -414055.64 110949.654        0.0
                          0.0        0.0 3013.92795 1600.10408  -4614.032 303108.891 -414054.45 110945.554 1413.82387 6214.13612
                     -7627.96 1406.52136 6197.94132 -7604.4627 717161.633  -525005.3 -192156.34 .386798559 -.38554794 -.00125062
                   1.48321909 -1.7767436 .293524513        0.0   93.89001    2.63644   2.221454   10.89685   9.181639    .241945
                         380.    .041595    .026766    .245612    .199445   1.340625    .010635    .007317   4904.221   98.08442
                          1.0        1.0        0.0        0.0        0.0
  18000      .018   2406.8985 2264.29269 -4671.1912  2406.8985 2264.29269 -4671.1912 346791.417 -391602.86 44811.4425        0.0
                          0.0        0.0 2415.57406 2269.34343 -4684.9175 346793.795 -391601.04 44807.2448  146.23063 6954.26091
                   -7100.4915 142.605811 6935.48388 -7078.0897 738394.276  -436414.3 -301979.97 .416745921 -.34575395 -.07099197
                   1.65193943 -1.6474189 -.00452053        0.0   93.89001    2.63644   2.221454   10.89685   9.181639    .241945
                         380.    .041595    .026766    .245612    .199445   1.340625    .010635    .007317   4904.221   98.08442
                          1.0        1.0        0.0        0.0        0.0
  18500     .0185  1750.87008 2875.69087  -4626.561 1750.87008 2875.69087  -4626.561 381937.676 -359507.51 -22430.169        0.0
                          0.0        0.0 1757.74569 2882.70151 -4640.4472 381939.485 -359505.12 -22434.368 -1124.9558 7523.14872
                   -6398.1929 -1124.8208 7502.25182  -6377.431 741445.182 -337077.34 -404367.84 .436429252 -.29744516 -.13898409
                   1.77998389 -1.4775291 -.30245526        0.0   93.89001    2.63644   2.221454   10.89685   9.181639    .241945
                         380.    .041595    .026766    .245612    .199445   1.340625    .010635    .007317   4904.221   98.08442
                          1.0        1.0        0.0        0.0        0.0
  19000      .019  1051.73026 3416.27958 -4468.0098 1051.73026 3416.27958 -4468.0098 407679.362 -318559.89 -89119.476        0.0
                          0.0        0.0 1056.63243  3425.0796  -4481.712 407680.557 -318556.98 -89123.572 -2368.4472 7906.79163
                   -5538.3445 -2364.5493 7884.28941 -5519.7401 726239.248 -229440.41 -496798.84 .445369201 -.24181377 -.20355543
                   1.86419906 -1.2712574 -.59294119        0.0   93.89001    2.63644   2.221454   10.89685   9.181639    .241945
                         380.    .041595    .026766    .245612    .199445   1.340625    .010635    .007317   4904.221   98.08442
                          1.0        1.0        0.0        0.0        0.0
  19500     .0195  326.692292 3872.74866  -4199.441 326.692292 3872.74866  -4199.441 423382.637 -269768.27 -153614.37        0.0
                          0.0        0.0 329.500885 3883.12109  -4212.622  423383.18 -269764.92 -153618.26 -3553.6202 8095.74306
                   -4542.1229 -3546.0564 8072.18961 -4526.1332 693150.905  -116153.9 -576997.01 .443341011 -.18022728 -.26311373
                   1.90251143 -1.0336834 -.86882834        0.0   93.89001    2.63644   2.221454   10.89685   9.181639    .241945
                         380.    .041595    .026766    .245612    .199445   1.340625    .010635    .007317   4904.221   98.08442
                          1.0        1.0        0.0        0.0        0.0
  20000       .02  -406.39096 4233.85833 -3827.4674 -406.39096 4233.85833 -3827.4674 428660.819 -214334.06 -214326.76        0.0
                          0.0        0.0 -405.74233 4245.54638  -3839.804 428660.705 -214330.35 -214330.35 -4651.2887 8085.35043
                   -3434.0617 -4640.2493 8061.32569 -3421.0764 642994.876 -7.2933394 -642987.58 .430396653 -.11420318 -.31619347
                   1.89397771 -.77065705 -1.1233209        0.0   93.89001    2.63644   2.221454   10.89685   9.181639    .241945
                         380.    .041595    .026766    .245612    .199445   1.340625    .010635    .007317   4904.221   98.08442
                          1.0        1.0        0.0        0.0        0.0
  20500     .0205  -1129.4643  4490.7147 -3361.2504 -1129.4643  4490.7147 -3361.2504 423383.953 -153622.23 -269761.72        0.0
                          0.0        0.0 -1130.9947 4503.43215 -3372.4375  423383.18 -153618.26 -269764.92 -5634.4269 7875.86961
                   -2241.4428  -5620.179 7851.96515 -2231.7862 577006.184 116139.492 -693145.68  .40685409 -.04536681 -.36148728
                   1.83880791 -.48865383 -1.3501541        0.0   93.89001    2.63644   2.221454   10.89685   9.181639    .241945
                         380.    .041595    .026766    .245612    .199445   1.340625    .010635    .007317   4904.221   98.08442
                          1.0        1.0        0.0        0.0        0.0
  21000      .021  -1824.7323 4636.99774 -2812.2655 -1824.7323 4636.99774 -2812.2655 407681.963 -89127.712 -318554.25        0.0
                          0.0        0.0 -1828.4001 4650.42941 -2822.0293 407680.557 -89123.572 -318556.98 -6478.8295 7472.45872
                   -993.62921   -6461.73  7449.2632 -987.53317 496809.675 229426.538 -726236.21 .373294731 .024585986 -.39788072
                   1.73836069 -.19461848 -1.5437418        0.0   93.89001    2.63644   2.221454   10.89685   9.181639    .241945
[...]
                         380.    .041595    .026766    .245612    .199445   1.340625    .010635    .007317   4904.221   98.08442
                          1.0        1.0        0.0        0.0        0.0
 113000      .113  -247315.81 -176985.22 424301.035 -247315.81 -176985.22 424301.035 -247315.81 -176985.22 424301.035        0.0
                          0.0        0.0 -247135.09 -178102.38 425237.475 -251960.44 -174352.02 426312.457 -69032.709 -603339.86
                   672372.567 -70330.587 -601286.26 671616.846 -70330.588 -601286.26 671616.847 -99.059212 151.809997 -52.750783
                   -195.06355 236.871482 -41.807901        0.0   93.89001    2.63644   2.221454   10.89685   9.181639    .241945
                         380.    .041595    .026766    .245612    .199445   1.340625    .010635    .007317   4904.221   98.08442
                          1.0        1.0        0.0        0.0        0.0
 113500     .1135  -190485.08 -224674.05 415159.136 -190485.08 -224674.05 415159.136 -190485.08 -224674.05 415159.136        0.0
                          0.0        0.0 -193195.74 -223450.79 416646.532 -194607.89 -233465.35  428073.24 30255.0545 -640097.33
                   609842.271 34188.9711 -639833.19 605644.219 34188.9707 -639833.19 605644.219 -89.338566 111.174477  -21.83591
                   -208.78361 223.191633 -14.407994        0.0   93.89001    2.63644   2.221454   10.89685   9.181639    .241945
                         380.    .041595    .026766    .245612    .199445   1.340625    .010635    .007317   4904.221   98.08442
                          1.0        1.0        0.0        0.0        0.0
 114000      .114  -131216.25 -284356.07  415572.32 -131216.25 -284356.07  415572.32 -131216.25 -284356.07  415572.32        0.0
                          0.0        0.0 -129369.48 -292768.01 422137.488 -132463.44   -286830.  419293.44 163398.535  -714905.5
                   551506.965 153139.824 -699928.39 546788.568 153139.823 -699928.39 546788.568 -81.492718 79.4999401   1.992779
                   -218.62686 205.924089 12.7027673        0.0   93.89001    2.63644   2.221454   10.89685   9.181639    .241945
                         380.    .041595    .026766    .245612    .199445   1.340625    .010635    .007317   4904.221   98.08442
                          1.0        1.0        0.0        0.0        0.0
 114500     .1145  -70388.727  -332332.5 402721.227 -70388.727  -332332.5 402721.227 -70388.728  -332332.5 402721.227        0.0
                          0.0        0.0 -70818.291 -334167.09 404985.378 -67057.308 -333131.94 400189.244 263348.796 -739152.46
                   475803.669 261943.772 -735053.73 473109.955 261943.772 -735053.73 473109.955 -104.43688 123.096252 -18.659367
                   -224.23455 185.231942  39.002565        0.0   93.89001    2.63644   2.221454   10.89685   9.181639    .241945
                         380.    .041595    .026766    .245612    .199445   1.340625    .010635    .007317   4904.221   98.08442
                          1.0        1.0        0.0        0.0        0.0
 115000      .115  -2628.2206 -371204.28 373832.498 -2628.2206 -371204.28 373832.498 -2628.2208 -371204.28 373832.498        0.0
                          0.0        0.0 -6679.7386 -364116.95 370796.691 .127058E-4 -371231.06  371231.06 357437.214 -734913.64
                   377476.429 368576.057 -745036.78 376460.719 368576.057 -745036.78 376460.719 -82.723931  73.715725 9.00820706
                    -225.7463 162.247778 63.4985203        0.0   93.89001    2.63644   2.221454   10.89685   9.181639    .241945
                         380.    .041595    .026766    .245612    .199445   1.340625    .010635    .007317   4904.221   98.08442
                          1.0        1.0        0.0        0.0        0.0
 115500     .1155   69092.729 -408617.37 339524.644  69092.729 -408617.37 339524.644 69092.7289 -408617.37 339524.644        0.0
                          0.0        0.0 70664.7635 -410401.58 339736.817 67057.3081 -400189.24 333131.936 481066.344  -750138.4
                   269072.053 477710.102 -748142.02 270431.915 477710.101 -748142.02 270431.915 -84.167588 79.5770123 4.59057572
                   -222.87153 136.986503 85.8850461        0.0   93.89001    2.63644   2.221454   10.89685   9.181639    .241945
                         380.    .041595    .026766    .245612    .199445   1.340625    .010635    .007317   4904.221   98.08442
                          1.0        1.0        0.0        0.0        0.0
 116000      .116  131201.411 -420139.35 288937.939 131201.411 -420139.35 288937.939 131201.411 -420139.35 288937.939        0.0
                          0.0        0.0 133730.739 -421414.52 287683.777 132463.443 -419293.44 286829.997 555145.254 -709098.29
                   153953.039 551340.761 -709077.29 157736.528 551340.761 -709077.29 157736.528 -101.83796 119.287138 -17.449178
                   -215.69799 110.133028 105.564989        0.0   93.89001    2.63644   2.221454   10.89685   9.181639    .241945
                         380.    .041595    .026766    .245612    .199445   1.340625    .010635    .007317   4904.221   98.08442
                          1.0        1.0        0.0        0.0        0.0
 116500     .1165  193856.542 -423509.59  229653.05 193856.542 -423509.59  229653.05 193856.542 -423509.59  229653.05        0.0
                          0.0        0.0 195234.221 -426098.76 230864.541 194607.888 -428073.24 233465.353 621332.982  -656963.3
                   35630.3199 617366.134 -653162.64 35796.5075 617366.134 -653162.64 35796.5077 -73.558891 56.7646943 16.7941963
                   -204.63239 82.8549548 121.777408        0.0   93.89001    2.63644   2.221454   10.89685   9.181639    .241945
                         380.    .041595    .026766    .245612    .199445   1.340625    .010635    .007317   4904.221   98.08442
                          1.0        1.0        0.0        0.0        0.0
 117000      .117  257029.561 -426261.27 169231.708 257029.561 -426261.27 169231.708 257029.561 -426261.27 169231.708        0.0
                          0.0        0.0 258016.218 -433745.02 175728.802 251960.441 -426312.46 174352.016 691761.238 -609473.82
                   -82287.416  683290.83 -595492.98 -87797.853  683290.83 -595492.98 -87797.853 -78.873336 66.7083899 12.1649458
                   -189.64894 55.1716228 134.477345        0.0   93.89001    2.63644   2.221454   10.89685   9.181639    .241945
                         380.    .041595    .026766    .245612    .199445   1.340625    .010635    .007317   4904.221   98.08442
                          1.0        1.0        0.0        0.0        0.0
 117500     .1175   304360.27 -409131.91 104771.637  304360.27 -409131.91 104771.637  304360.27 -409131.91 104771.637        0.0
                          0.0        0.0 300388.886 -405459.06 105070.175 303108.891 -414054.45 110945.554 705847.947 -510529.24
                   -195318.71 713492.176 -513903.54 -199588.63 713492.176 -513903.54 -199588.63 -87.424948 81.6068193 5.81812856
                   -171.22155 28.0011456 143.220389        0.0   93.89001    2.63644   2.221454   10.89685   9.181639    .241945
                         380.    .041595    .026766    .245612    .199445   1.340625    .010635    .007317   4904.221   98.08442
                          1.0        1.0        0.0        0.0        0.0
 118000      .118  343398.308 -389829.86 46431.5485 343398.308 -389829.86 46431.5485 343398.308 -389829.86 46431.5486        0.0
                          0.0        0.0 342516.118 -386700.89 44184.7673 346793.795 -391601.04 44807.2447 729217.003 -430885.65
                   -298331.35 733228.165 -436261.41 -296966.76 733228.165 -436261.41 -296966.76 -60.242364 26.6217314 33.6206322
                   -149.94879 2.29389573 147.654903        0.0   93.89001    2.63644   2.221454   10.89685   9.181639    .241945
                         380.    .041595    .026766    .245612    .199445   1.340625    .010635    .007317   4904.221   98.08442
                          1.0        1.0        0.0        0.0        0.0
 118500     .1185  378922.239 -364860.25 -14061.988 378922.239 -364860.25 -14061.988 378922.239 -364860.25 -14061.988        0.0
                          0.0        0.0 384263.247 -370002.46  -14260.79 381939.485 -359505.12 -22434.368 754265.704 -355741.67
                   -398524.04  743782.49 -350798.26 -392984.23  743782.49 -350798.26 -392984.23 -69.680449 61.4868841 8.19356439
                   -126.08147  -21.91804 147.999526        0.0   93.89001    2.63644   2.221454   10.89685   9.181639    .241945
                         380.    .041595    .026766    .245612    .199445   1.340625    .010635    .007317   4904.221   98.08442
                          1.0        1.0        0.0        0.0        0.0
 119000      .119  405345.355 -318236.66 -87108.691 405345.355 -318236.66 -87108.691 405345.355 -318236.66 -87108.691        0.0
                          0.0        0.0 408282.769 -318962.72 -89320.046 407680.557 -318556.98 -89123.572 727245.492 -229642.68
                   -497602.81 723582.018 -231127.97 -492454.05 723582.018 -231127.97 -492454.05 -64.279225 62.9125488 1.36667548
                   -100.39198 -43.592714 143.984692        0.0   93.89001    2.63644   2.221454   10.89685   9.181639    .241945
                         380.    .041595    .026766    .245612    .199445   1.340625    .010635    .007317   4904.221   98.08442
                          1.0        1.0        0.0        0.0        0.0
 119500     .1195  426649.628 -272077.47 -154572.16 426649.628 -272077.47 -154572.16 426649.628 -272077.47 -154572.16        0.0
                          0.0        0.0 428601.142 -275128.58 -153472.56  423383.18 -269764.92 -153618.26 703729.721 -121656.02
                   -582073.71 698727.096 -117505.31 -581221.79 698727.096 -117505.31 -581221.79 -37.969536 16.4312316 21.5383037
                   -73.536315 -62.139079 135.675423        0.0   93.89001    2.63644   2.221454   10.89685   9.181639    .241945
                         380.    .041595    .026766    .245612    .199445   1.340625    .010635    .007317   4904.221   98.08442
                          1.0        1.0        0.0        0.0        0.0
  % % % % % %   Suspended simulation;  plot data space exhausted;  SPY SPACE is required.   LIMBUF =  840000.
  % % % % % %   Suspended simulation;  plot data space exhausted;  SPY SPACE is required.   LIMBUF =  840000.
  +++  Time-sharing disabled.   Send  user-keyed interrupt to silence alarm.
   Current values.  INDBUF  INDBEG  LIMBUF  MFLUSH  NUMDCD  KCARD1  KCARD2
                    839994      50  840000    1007     230       1     231
Plot timespan now in memory (in sec) = 1.04985997E-01   1.19985000E-01
   ++++  Begin plot-data copy from memory to disk.   MFLUSH, INDBUF, N4, Tbeg,  Tend = 1008  839994       1  -1.00000E+00
1.00000E+19
 120000       .12  432464.068 -217264.54 -215199.53 432464.068 -217264.54 -215199.53 432464.068 -217264.54 -215199.53        0.0
                          0.0        0.0 432492.884 -218782.28  -213710.6 428660.705 -214330.35 -214330.35 651275.168  -5071.685
                   -646203.48 649728.608  -2065.012  -647663.6 649728.607 -2065.0119  -647663.6 -53.558516 58.7588094 -5.2002945
                    -45.93692 -77.619129 123.556049        0.0   93.89001    2.63644   2.221454   10.89685   9.181639    .241945
                         380.    .041595    .026766    .245612    .199445   1.340625    .010635    .007317   4904.221   98.08442
                          1.0        1.0        0.0        0.0        0.0

Extrema of output variables follow.   Order and column positioning are the same as for the preceding time-step loop output.
Variable maxima :   442085.54 452154.032 456975.316  442085.54 452154.032 456975.316 446329.934 452154.032 456975.316        0.0
                          0.0        0.0 450627.575 477116.448 463564.946 428660.705 428660.703 428660.703 822116.686 810927.381
                   769787.751 769740.161 787959.381 765680.913 769740.161 787959.382 765680.913  580.99254 408.860075 111.948545
                   120.038082 293.534999 148.368137        0.0   93.89001    2.63644   2.221454   10.89685   9.181639    .241945
                         380.    .041595    .026766    .245612    .199445   1.340625    .010635    .007317   4904.221   98.08442
                          1.0        1.0        0.0        0.0        0.0
Times of maxima :     .060331    .066885    .053335    .060331    .066885    .053335    .042129    .066885    .053335        0.0
                          0.0        0.0    .060483    .066739    .053481        0.0    .006667    .113333    .057673    .065494
                       .05163    .058784    .065279    .051873    .058784    .065279    .051873    .041819    .050864    .058611
                      .104941    .051567    .118319        0.0        0.0        0.0        0.0        0.0        0.0        0.0
                          0.0        0.0        0.0        0.0        0.0        0.0        0.0        0.0        0.0        0.0
                          0.0        0.0        0.0        0.0        0.0
Variable minima :  -450190.35 -458628.29 -458942.94 -450190.35 -458628.29 -458942.94 -450190.35 -458628.29 -499380.25        0.0
                          0.0        0.0 -464550.03 -483375.86  -461986.4 -428660.71  -428660.7  -428660.7 -800218.28  -855563.9
                   -821676.09 -778134.26  -790093.6 -812464.88 -778134.26  -790093.6 -945565.72 -215.80301 -115.61139 -627.23936
                   -250.26594 -89.725425 -220.06982        0.0   93.89001    2.63644   2.221454   10.89685   9.181639    .241945
                         380.    .041595    .026766    .245612    .199445   1.340625    .010635    .007317   4904.221   98.08442
                          1.0        1.0        0.0        0.0        0.0
Times of minima :     .049925    .056276    .043091    .049925    .056276    .043091    .049925    .056276    .042133        0.0
                          0.0        0.0    .049921    .056079    .042852        .01    .016667    .103333    .068303    .054746
                      .042851    .068224    .054951    .042617    .068224    .054951    .042131    .055081    .058625    .042083
                      .054871    .101658    .047966        0.0        0.0        0.0        0.0        0.0        0.0        0.0
                          0.0        0.0        0.0        0.0        0.0        0.0        0.0        0.0        0.0        0.0
                          0.0        0.0        0.0        0.0        0.0

Blank card terminating all plot cards.            |BLANK PLOT

Memory storage figures for the preceding, now-completed data case.  -------------------------------  Present   Program
A value of  "-9999"  indicates that no figure is available.         28-Feb-22  19:24:09              figure     limit  (name)
     Size List 1.   Number of electric network nodes.                                                   37      6000  (LBUS)
     Size List 2.   Number of electric network branches.                                                39     10000  (LBRNCH)
     Size List 3.   Number of data values in R, L, C tables.                                            45    192000  (LDATA)
     Size List 4.   Number of electric network sources.                                                  3       900  (LEXCT)
     Size List 5.   Storage for [Y] and triangularized [Y].   No. times =    3     Factors =    66     189    420000  (LYMAT)
     Size List 6.   Number of entries in switch table.                  No. flops = 18                  21      1200  (LSWTCH)
     Size List 7.   Number of distinct ALPHANUMERIC data names plus program SPY variables.              25     15000  (LSIZE7)
     Size List 8.   History points of distributed lines.                                              1018    120000  (LPAST)
     Size List 9.   Number of nonlinear elements.                                                        0      2250  (LNONL)
     Size List 10.  Points of nonlinear characteristics.                                                 0      3800  (LCHAR)
     Size List 11.  Number of Type-59 S.M. outputs.                                                      0       720  (LSMOUT)
     Size List 12.  Total number of EMTP output variables.                                              55      2000  (LSIZ12)
     Size List 13.  Working space for batch/SPY plotting.                                            -9999     72800  (LSIZ13)
     Size List 14.  S.M./U.M. connections to TACS.                                                   -9999       510  (LBSTAC)
     Size List 15.  Character storage in bytes for MODELS.                                            3297     90000  (LCTACS)
     Size List 16.  Total number of Type-59 S.M. masses.                                                 0       800  (LIMASS)
     Size List 17.  Number of Type-59 Synchronous machines.                                              0        90  (LSYN)
     Size List 18.  Branch and switch power/energy outputs.                                              0       254  (MAXPE)
     Size List 19.  Total floating-point TACS table space.                                              23    120000  (LTACST)
     Size List 20.  Non-copied recursive convolution data.                                               0    100000  (LFSEM)
     Size List 21.  Total modal/phase [T] matrix storage.                                                9      3000  (LFD)
     Size List 22.  Total recursive convolution history.                                                 0     15000  (LHIST)
     Size List 23.  Giant vectors for renumbering, phasors;  also extrema accumulation.                  93    192000  (LSIZ23)
     Size List 24.  Peak phases of compensation for data.                                                0       120  (LCOMP)
     Size List 25.  Total table space for all U.M usage.                                             -9999     45000  (LSPCUM)
     Size List 26.  Square of max number of coupled phases.                                              9    260000  (LSIZ26)
     Size List 27.  Maximum number of MODELS top variables.                                             44       600  (LSIZ27)
     Size List 28.  MODELS.  Total work space is divided into INTEGER and REAL.  1st, REAL:           1780    210000  (LRTACS)
                             Second  and last,  statistics for INTEGER work space.                    6838         0  (LITACS)
     Size List 29.  RAM disk used by "TAPSAV" table saving (limit is "LABCOM" size LTLABL).          -9999       600  (LSIZ29)
     Size List 30.  Taku Noda frequency-dependent circuits.                                              0        19  (LSIZ30)
Timing figures characterizing central processor (CP) solution speed.  ----------------------------   CP sec  Wait sec  Real sec
     Data input time (through blank card ending branches) ....                                       0.016     0.000     0.016
     Node renumbering and phasor solution  ....                                                      0.000     0.000     0.000
     After phasor solution, but before time-step loop  ....                                          0.000     0.000     0.000
     Integration of equations (time-step loop)  ....                                                 1.203     0.000     1.203
     Plotting or STATISTICS termination overlays ....                                                0.000     0.000     0.000
                                                                                                    ---------------------------
                                                                                          Totals      1.219     0.000     1.219

