   ---   236   cards of disk file read into card cache cells  1   onward.
 Comment card is ignored.      |C   LBUS  LBRNCH   LDATA   LEXCT   LYMAT  LSWTCH
 Limit CIDEAL cards =   200    |CARDS        200 { Limit of CIDEAL will be 2 mor
 1st card (Lists  1-10).       |    6000   10000  192000     900  420000    120
 Comment card is ignored.      |C LSMOUT  LSIZ12  LSIZ13  LBSTAC  LCTACS  LIMASS
 2nd card (Lists 11-20).       |     720    2000   72800     510   90000     80
 Comment card is ignored.      |C    LFD   LHIST  LSIZ23   NCOMP  LSPCUM  LSIZ26
 3rd card (Lists 21-30).       |    3000   15000  192000     120   45000  26000
 4th card (Lists 31-32).       |     200     300     { Optional card for Lists
 Comment card is ignored.      |C  LWORK  LMARTI
 Supplemental offsets.         |  840000     742
 <===> Done with  "/"-card sorting by data class.    Remember that the source file appears different from interpreted input data.
Alternative Transients Program (ATP),  GNU Linux or DOS.  All rights reserved by Can/Am user group of Portland, Oregon, USA.
 Date (dd-mth-yy) and time of day (hh.mm.ss) = 28-Feb-22  20:52:10   Name of disk plot file is  p\bdfinalisima\energizacion3885.pl4
Consult the 860-page ATP Rule Book of the Can/Am EMTP User Group in Portland,  Oregon, USA.  Source code date is 12 August 2008.
Total size of LABCOM tables = 10913436 INTEGER words.  31 VARDIM  List Sizes follow:  6002  10K  192K  900  420K  1200  15K
  120K  2250  3800  720  2K  72800  510  90K  800  90  254  120K  100K  3K  15K  192K  120  45K  260K  600  210K  1100  60  200
--------------------------------------------------+--------------------------------------------------------------------------------
Descriptive interpretation of input data cards.   |  Input data card images are shown below, all 80 columns, character by character
                                                  0         1         2         3         4         5         6         7         8
                                                  012345678901234567890123456789012345678901234567890123456789012345678901234567890
--------------------------------------------------+--------------------------------------------------------------------------------
Comment card.   NUMDCD = 1.                       |C data:D:\ATP\BDFINALISIMA\ENERGIZACION3885.ATP
Marker card preceding new EMTP data case.         |BEGIN NEW DATA CASE
Comment card.   NUMDCD = 3.                       |C --------------------------------------------------------
Comment card.   NUMDCD = 4.                       |C Generated by ATPDRAW  febrero, lunes 28, 2022
Comment card.   NUMDCD = 5.                       |C A Bonneville Power Administration program
Comment card.   NUMDCD = 6.                       |C by H. K. Høidalen at SEfAS/NTNU - NORWAY 1994-2016
Comment card.   NUMDCD = 7.                       |C --------------------------------------------------------
Comment card.   NUMDCD = 8.                       |C  dT  >< Tmax >< Xopt >< Copt ><Epsiln>
Misc. data.     1.000E-06   1.200E-01   5.000E+01 |   1.E-6     .12     50.
Misc. data.    500    1  0  1  1  0  0  0  0  0   |     500       1       0       1       1       0       0       0       0
  ///  Warning.  Nonzero XOPT or COPT differs from the power frequency of  6.00000000E+01  Hz.   Did the user really want this?
No TACS data,  but MODELS data begins (next).     |MODELS
      Another ordinary MODELS data card.          |OUTPUT
      Another ordinary MODELS data card.          |  AnVol
      Another ordinary MODELS data card.          |  LONG
      Another ordinary MODELS data card.          |  R0F
      Another ordinary MODELS data card.          |  R1F
      Another ordinary MODELS data card.          |  X0F
      Another ordinary MODELS data card.          |  X1F
      Another ordinary MODELS data card.          |  RDIVX
      Another ordinary MODELS data card.          |  RINSER
      Another ordinary MODELS data card.          |  CLOSE1
      Another ordinary MODELS data card.          |  RPpos
      Another ordinary MODELS data card.          |  RPcero
      Another ordinary MODELS data card.          |  LPpos
      Another ordinary MODELS data card.          |  LPcero
      Another ordinary MODELS data card.          |  CPpos
      Another ordinary MODELS data card.          |  CPcero
      Another ordinary MODELS data card.          |  Xp
      Another ordinary MODELS data card.          |  CR
      Another ordinary MODELS data card.          |  SIMET
      Another ordinary MODELS data card.          |  ENC1
      Another ordinary MODELS data card.          |  ENC2
      Another ordinary MODELS data card.          |  ENC1AS
      Another ordinary MODELS data card.          |  ENC2AS
      Another ordinary MODELS data card.          |MODEL DEFAULT
      Another ordinary MODELS data card.          |DATA AnVol,LONG,R0F,R1F,X0F,X1F,RDIVX,RINSER,CLOSE1,RPpos,RPcero,LPpos,LPcero
      Another ordinary MODELS data card.          |OUTPUT o1,o2,o3, o4, o5, o6, o7, o8, o9, o10, o11, o12, o13
      Another ordinary MODELS data card.          |VAR o1,o2,o3, o4, o5, o6, o7, o8, o9, o10, o11, o12, o13
      Another ordinary MODELS data card.          |INIT
      Another ordinary MODELS data card.          |  o1:=AnVol
      Another ordinary MODELS data card.          |  o2:=LONG
      Another ordinary MODELS data card.          |  o3:=R0F
      Another ordinary MODELS data card.          |  o4:=R1F
      Another ordinary MODELS data card.          |  o5:=X0F
      Another ordinary MODELS data card.          |  O6:=X1F
      Another ordinary MODELS data card.          |  o7:=RDIVX
      Another ordinary MODELS data card.          |  o8:=RINSER
      Another ordinary MODELS data card.          |  o9:=CLOSE1
      Another ordinary MODELS data card.          |  o10:=RPpos
      Another ordinary MODELS data card.          |  o11:=RPcero
      Another ordinary MODELS data card.          |  o12:=LPpos
      Another ordinary MODELS data card.          |  o13:=LPcero
      Another ordinary MODELS data card.          |
      Another ordinary MODELS data card.          |ENDINIT
      Another ordinary MODELS data card.          |EXEC
      Another ordinary MODELS data card.          |ENDEXEC
      Another ordinary MODELS data card.          |ENDMODEL
      Another ordinary MODELS data card.          |MODEL DEFAULT1
      Another ordinary MODELS data card.          |DATA CPpos,CPcero,Xp,CR,SIMET,ENC1,ENC2,ENC1AS,ENC2AS
      Another ordinary MODELS data card.          |OUTPUT o1, o2, o3, o4, o5, o6, o7, o8, o9
      Another ordinary MODELS data card.          |VAR o1, o2, o3, o4, o5, o6, o7, o8, o9
      Another ordinary MODELS data card.          |INIT
      Another ordinary MODELS data card.          |  o1:=CPpos
      Another ordinary MODELS data card.          |  o2:=CPcero
      Another ordinary MODELS data card.          |  o3:=Xp
      Another ordinary MODELS data card.          |  o4:=CR
      Another ordinary MODELS data card.          |  o5:=SIMET
      Another ordinary MODELS data card.          |  o6:=ENC1
      Another ordinary MODELS data card.          |  o7:=ENC2
      Another ordinary MODELS data card.          |  o8:=ENC1AS
      Another ordinary MODELS data card.          |  o9:=ENC2AS
      Another ordinary MODELS data card.          |
      Another ordinary MODELS data card.          |ENDINIT
      Another ordinary MODELS data card.          |EXEC
      Another ordinary MODELS data card.          |ENDEXEC
      Another ordinary MODELS data card.          |ENDMODEL
      Another ordinary MODELS data card.          |USE DEFAULT AS DEFAULT
      Another ordinary MODELS data card.          |DATA
      Another ordinary MODELS data card.          |  AnVol:=      0.0
      Another ordinary MODELS data card.          |  LONG:= 297.0829
      Another ordinary MODELS data card.          |  R0F:= 3.661192
      Another ordinary MODELS data card.          |  R1F:= 2.770406
      Another ordinary MODELS data card.          |  X0F:= 17.02434
      Another ordinary MODELS data card.          |  X1F:= 12.88224
      Another ordinary MODELS data card.          |  RDIVX:= 0.215056
      Another ordinary MODELS data card.          |  RINSER:=     420.
      Another ordinary MODELS data card.          |  CLOSE1:= 0.047657
      Another ordinary MODELS data card.          |  RPpos:=  0.02718
      Another ordinary MODELS data card.          |  RPcero:= 0.258339
      Another ordinary MODELS data card.          |  LPpos:= 0.242926
      Another ordinary MODELS data card.          |  LPcero:= 1.021268
      Another ordinary MODELS data card.          |OUTPUT
      Another ordinary MODELS data card.          |  AnVol:=o1
      Another ordinary MODELS data card.          |  LONG:=o2
      Another ordinary MODELS data card.          |  R0F:=o3
      Another ordinary MODELS data card.          |  R1F:=o4
      Another ordinary MODELS data card.          |  X0F:=o5
      Another ordinary MODELS data card.          |  X1F:=o6
      Another ordinary MODELS data card.          |  RDIVX:=o7
      Another ordinary MODELS data card.          |  RINSER:=o8
      Another ordinary MODELS data card.          |  CLOSE1:=o9
      Another ordinary MODELS data card.          |  RPpos:=o10
      Another ordinary MODELS data card.          |  RPcero:=o11
      Another ordinary MODELS data card.          |  LPpos:=o12
      Another ordinary MODELS data card.          |  LPcero:=o13
      Another ordinary MODELS data card.          |ENDUSE
      Another ordinary MODELS data card.          |USE DEFAULT1 AS DEF
      Another ordinary MODELS data card.          |DATA
      Another ordinary MODELS data card.          |  CPpos:= 0.012438
      Another ordinary MODELS data card.          |  CPcero:= 0.005406
      Another ordinary MODELS data card.          |  Xp:=  1325.28
      Another ordinary MODELS data card.          |  CR:= 26.50559
      Another ordinary MODELS data card.          |  SIMET:=      0.0
      Another ordinary MODELS data card.          |  ENC1:=      0.0
      Another ordinary MODELS data card.          |  ENC2:=      0.0
      Another ordinary MODELS data card.          |  ENC1AS:=      0.0
      Another ordinary MODELS data card.          |  ENC2AS:=      0.0
      Another ordinary MODELS data card.          |OUTPUT
      Another ordinary MODELS data card.          |  CPpos:=o1
      Another ordinary MODELS data card.          |  CPcero:=o2
      Another ordinary MODELS data card.          |  Xp:=o3
      Another ordinary MODELS data card.          |  CR:=o4
      Another ordinary MODELS data card.          |  SIMET:=o5
      Another ordinary MODELS data card.          |  ENC1:=o6
      Another ordinary MODELS data card.          |  ENC2:=o7
      Another ordinary MODELS data card.          |  ENC1AS:=o8
      Another ordinary MODELS data card.          |  ENC2AS:=o9
      Another ordinary MODELS data card.          |ENDUSE
      Another ordinary MODELS data card.          |RECORD
      Another ordinary MODELS data card.          |  DEFAULT.o1 AS AnVOL
      Another ordinary MODELS data card.          |  DEFAULT.o2 AS LONG
      Another ordinary MODELS data card.          |  DEFAULT.o3 AS R0F
      Another ordinary MODELS data card.          |  DEFAULT.o4 AS R1F
      Another ordinary MODELS data card.          |  DEFAULT.o5 AS X0F
      Another ordinary MODELS data card.          |  DEFAULT.o6 AS X1F
      Another ordinary MODELS data card.          |  DEFAULT.o7 AS RDIVX
      Another ordinary MODELS data card.          |  DEFAULT.o8 AS RINSER
      Another ordinary MODELS data card.          |  DEFAULT.o9 AS CLOSE1
      Another ordinary MODELS data card.          |  DEFAULT.o10 AS RPpos
      Another ordinary MODELS data card.          |  DEFAULT.o11 AS RPcero
      Another ordinary MODELS data card.          |  DEFAULT.o12 AS LPpos
      Another ordinary MODELS data card.          |  DEFAULT.o13 AS LPcero
      Another ordinary MODELS data card.          |  DEF.o1 AS CPpos
      Another ordinary MODELS data card.          |  DEF.o2 AS CPcero
      Another ordinary MODELS data card.          |  DEF.o3 AS Xp
      Another ordinary MODELS data card.          |  DEF.o4 AS CR
      Another ordinary MODELS data card.          |  DEF.o5 AS SIMET
      Another ordinary MODELS data card.          |  DEF.o6 AS ENC1
      Another ordinary MODELS data card.          |  DEF.o7 AS ENC2
      Another ordinary MODELS data card.          |  DEF.o8 AS ENC1AS
      Another ordinary MODELS data card.          |  DEF.o9 AS ENC2AS
Termination of data for Laurent Dube`s MODELS.    |ENDMODELS
Comment card.   NUMDCD = 153.                     |C        1         2         3         4         5         6         7         8
Comment card.   NUMDCD = 154.                     |C 345678901234567890123456789012345678901234567890123456789012345678901234567890
Optional blank card follows last of MODELS data.  |BLANK MODELS
Comment card.   NUMDCD = 156.                     |C < n1 >< n2 ><ref1><ref2>< R  >< L  >< C  >
Comment card.   NUMDCD = 157.                     |C < n1 >< n2 ><ref1><ref2>< R  >< A  >< B  ><Leng><><>0
1st of coupled R-L.   3.66120E+00  5.41902E-02    |51IFUENASB1A              3.661217.024343043
2nd coil. 2.770E+00 4.101E-02 0.000E+00 0.000E+00 |52IFUENBSB1B              2.770412.882236155
Zca, Zcc= 2.969E-01 4.395E-03 3.067E+00 4.540E-02 |53IFUENCSB1C
Series R-L-C.   1.000E+09  0.000E+00  0.000E+00   |  SB1A                      1.E9                                               0
Series R-L-C.   1.000E+09  0.000E+00  0.000E+00   |  SB1B                      1.E9                                               0
Series R-L-C.   1.000E+09  0.000E+00  0.000E+00   |  SB1C                      1.E9                                               0
Series R-L-C.   1.000E+09  0.000E+00  0.000E+00   |  RSNSHA                    1.E9                                               0
Series R-L-C.   1.000E+09  0.000E+00  0.000E+00   |  RSNSHB                    1.E9                                               0
Series R-L-C.   1.000E+09  0.000E+00  0.000E+00   |  RSNSHC                    1.E9                                               0
Series R-L-C.   1.000E+09  0.000E+00  0.000E+00   |  RSNNHA                    1.E9                                               0
Series R-L-C.   1.000E+09  0.000E+00  0.000E+00   |  RSNNHB                    1.E9                                               0
Series R-L-C.   1.000E+09  0.000E+00  0.000E+00   |  RSNNHC                    1.E9                                               0
Series R-L-C.   1.000E+09  0.000E+00  0.000E+00   |  SE2A                      1.E9                                               0
Series R-L-C.   1.000E+09  0.000E+00  0.000E+00   |  SE2B                      1.E9                                               0
Series R-L-C.   1.000E+09  0.000E+00  0.000E+00   |  SE2C                      1.E9                                               0
Series R-L-C.   2.500E+02  0.000E+00  3.000E-10   |  X0001B                    250.       .0003                                   0
Series R-L-C.   2.500E+02  0.000E+00  3.000E-10   |  X0002B                    250.       .0003                                   0
Series R-L-C.   1.000E-06  0.000E+00  0.000E+00   |  X0001ALN1A               1.E-6                                               0
Series R-L-C.   1.000E-06  0.000E+00  0.000E+00   |  SB1A  X0002A             1.E-6                                               0
Series R-L-C.   1.000E-06  0.000E+00  0.000E+00   |  X0001BLN1B               1.E-6                                               0
Series R-L-C.   1.000E-06  0.000E+00  0.000E+00   |  SB1B  X0002B             1.E-6                                               0
Series R-L-C.   1.000E-06  0.000E+00  0.000E+00   |  X0001CLN1C               1.E-6                                               0
Series R-L-C.   1.000E-06  0.000E+00  0.000E+00   |  SB1C  X0002C             1.E-6                                               0
Series R-L-C.   4.200E+02  0.000E+00  0.000E+00   |  XX0005X0002A              420.                                               0
Series R-L-C.   4.200E+02  0.000E+00  0.000E+00   |  XX0003X0002B              420.                                               0
Series R-L-C.   4.200E+02  0.000E+00  0.000E+00   |  XX0004X0002C              420.                                               0
Series R-L-C.   2.500E+02  0.000E+00  3.000E-10   |  X0001A                    250.       .0003                                   0
Series R-L-C.   1.000E+06  0.000E+00  0.000E+00   |  X0001AX0002A              1.E6                                               0
Series R-L-C.   1.000E+06  0.000E+00  0.000E+00   |  X0001BX0002B              1.E6                                               0
Series R-L-C.   1.000E+06  0.000E+00  0.000E+00   |  X0001CX0002C              1.E6                                               0
Series R-L-C.   2.500E+02  0.000E+00  3.000E-10   |  X0002C                    250.       .0003                                   0
Series R-L-C.   2.500E+02  0.000E+00  3.000E-10   |  X0002A                    250.       .0003                                   0
Series R-L-C.   2.500E+02  0.000E+00  3.000E-10   |  X0001C                    250.       .0003                                   0
Series R-L-C.   1.250E+02  0.000E+00  6.000E-10   |  X0001AX0002A              125.       .0006                                   0
Series R-L-C.   1.250E+02  0.000E+00  6.000E-10   |  X0001BX0002B              125.       .0006                                   0
Series R-L-C.   1.250E+02  0.000E+00  6.000E-10   |  X0001CX0002C              125.       .0006                                   0
 2.583E-01 1.021E+00 5.410E-03 7.752E+02 1.246E-03|-1LN1A  VFF2A             .258341.0213.00541297.08 0 0                         0
 2.718E-02 2.429E-01 1.244E-02 2.493E+02 9.214E-04|-2LN1B  VFF2B             .02718.24293.01244297.08 0 0                         0
3rd or later transposed distributed phase.        |-3LN1C  VFF2C                                                                  0
Blank card ending branches.  IBR, NTOT = 39  31   |BLANK BRANCH
Comment card.   NUMDCD = 198.                     |C < n 1>< n 2>< Tclose ><Top/Tde ><   Ie   ><Vf/CLOP ><  type  >
Switch.  -1.00E+00  1.00E+01  0.00E+00  0.00E+00  |  LN1A  COMPA        -1.       10.                                             0
Switch.  -1.00E+00  1.00E+01  0.00E+00  0.00E+00  |  LN1B  COMPB        -1.       10.                                             0
Switch.  -1.00E+00  1.00E+01  0.00E+00  0.00E+00  |  LN1C  COMPC        -1.       10.                                             0
Switch.  -1.00E+00  1.00E+01  0.00E+00  0.00E+00  |  VFF2A RSNNHA       -1.       10.                                             0
Switch.  -1.00E+00  1.00E+01  0.00E+00  0.00E+00  |  VFF2B RSNNHB       -1.       10.                                             0
Switch.  -1.00E+00  1.00E+01  0.00E+00  0.00E+00  |  VFF2C RSNNHC       -1.       10.                                             0
Switch.   2.00E+00 -1.00E+00  0.00E+00  0.00E+00  |  VFF2A SE2A          2.       -1.                                             0
Switch.   2.00E+00 -1.00E+00  0.00E+00  0.00E+00  |  VFF2B SE2B          2.       -1.                                             0
Switch.   2.00E+00 -1.00E+00  0.00E+00  0.00E+00  |  VFF2C SE2C          2.       -1.                                             0
Switch.   4.77E-02  1.00E+03  0.00E+00  0.00E+00  |  X0001BXX0003.047657114      1.E3                                             0
Switch.   4.77E-02  1.00E+03  0.00E+00  0.00E+00  |  X0001CXX0004.047657114      1.E3                                             0
Switch.   5.52E-02  1.00E+03  0.00E+00  0.00E+00  |  XX0005X0002A.055157114      1.E3                                             0
Switch.   5.52E-02  1.00E+03  0.00E+00  0.00E+00  |  XX0003X0002B.055157114      1.E3                                             0
Switch.   5.52E-02  1.00E+03  0.00E+00  0.00E+00  |  XX0004X0002C.055157114      1.E3                                             0
Switch.   4.77E-02  1.00E+03  0.00E+00  0.00E+00  |  X0001AXX0005.047657114      1.E3                                             0
Permanently-closed switch used for metering.      |  VFUENAIFUENA                                        MEASURING                1
Permanently-closed switch used for metering.      |  VFUENBIFUENB                                        MEASURING                1
Permanently-closed switch used for metering.      |  VFUENCIFUENC                                        MEASURING                1
Permanently-closed switch used for metering.      |  COMPA RSNSHA                                        MEASURING                1
Permanently-closed switch used for metering.      |  COMPB RSNSHB                                        MEASURING                1
Permanently-closed switch used for metering.      |  COMPC RSNSHC                                        MEASURING                1
Blank card ending switches.   KSWTCH = 21.        |BLANK SWITCH
Comment card.   NUMDCD = 221.                     |C < n 1><>< Ampl.  >< Freq.  ><Phase/T0><   A1   ><   T1   >< TSTART >< TSTOP  >
Source.   4.29E+05  5.00E+01  0.00E+00 -1.00E+00  |14VFUENA  428660.705       50.                                     -1.      100.
Source.   4.29E+05  5.00E+01 -1.20E+02 -1.00E+00  |14VFUENB  428660.705       50.     -120.                           -1.      100.
Source.   4.29E+05  5.00E+01 -2.40E+02 -1.00E+00  |14VFUENC  428660.705       50.     -240.                           -1.      100.
Blank card ends electric sources.  KCONST = 3     |BLANK SOURCE
Pi-equivalent branches of distributed circuits are added to the table of List Size 3 between indices  40   and  45.

Sinusoidal steady-state phasor solution, branch by branch.   All flows are away from a bus,  and the real part,  magnitude,  or  "P"
is printed above the imaginary part,  the angle,  or  "Q".   The first solution frequency  =  5.00000000E+01  Hertz.
  Bus K                        Phasor  node  voltage              Phasor  branch  current               Power flow       Power loss
             Bus M         Rectangular            Polar          Rectangular            Polar            P  and  Q        P  and  Q

 IFUENA                    428660.705       428660.705      .42892427338104  .44581178756744      91931.490709565  .27530593728916
                                  0.0              0.0      .12154060078271       15.8206848      -26049.83980882        1.2801603

            SB1A      428661.08242291    428661.082463       -.428924273381  .44581178756744      -91931.21540363
                      -5.862219862706       -0.0007836      -.1215406007827     -164.1793152      26051.119969121

 IFUENB                  -214330.3525       428660.705      -.1092048888164  .44581178756648      91931.490709074  .27530593728915
                      -371231.0601341     -120.0000000      -.4322296174394     -104.1793152       -26049.8398098        1.2801603

            SB1B      -214335.6180428    428661.082463      .10920488881637  .44581178756648      -91931.21540314
                       -371228.455882     -120.0007836      .43222961743942       75.8206848      26051.119970101

 IFUENC                  -214330.3525       428660.705      -.3197193845701  .44581178757199      91931.490709896  .27530593729217
                      371231.06013415      120.0000000      .31068901665213      135.8206848      -26049.83981123        1.2801603

            SB1C      -214325.4643801    428661.082463      .31971938457007  .44581178757199      -91931.21540396
                      371234.31810191      119.9992164      -.3106890166521      -44.1793152      26051.119971528

 SB1A                 428661.08242291    428661.082463      .42866108242E-3  .42866108246E-3      91.875161809175  91.875161809175
                      -5.862219862706       -0.0007836      -.5862219863E-8       -0.0007836      .8406802001E-19        0.0000000

            TERRA                 0.0              0.0      -.4286610824E-3  .42866108246E-3                  0.0
                                  0.0              0.0      .58622198627E-8      179.9992164                  0.0

 SB1B                 -214335.6180428    428661.082463       -.214335618E-3  .42866108246E-3      91.875161809175  91.875161809175
                       -371228.455882     -120.0007836      -.3712284559E-3     -120.0007836      -.416680579E-14        0.0000000

            TERRA                 0.0              0.0      .21433561804E-3  .42866108246E-3                  0.0
                                  0.0              0.0      .37122845588E-3       59.9992164                  0.0

 SB1C                 -214325.4643801    428661.082463      -.2143254644E-3  .42866108246E-3      91.875161809175  91.875161809175
                      371234.31810191      119.9992164       .3712343181E-3      119.9992164      .2650657471E-14        0.0000000

            TERRA                 0.0              0.0      .21432546438E-3  .42866108246E-3                  0.0
                                  0.0              0.0      -.3712343181E-3      -60.0007836                  0.0

 RSNSHA               69.225370369756   365.0732943555       .6922537037E-7  .36507329436E-6      .66639255126E-4  .66639255126E-4
                      -358.4499384136      -79.0693638      -.3584499384E-6      -79.0693638      .4830734777E-21        0.0000000

            TERRA                 0.0              0.0      -.6922537037E-7  .36507329436E-6                  0.0
                                  0.0              0.0      .35844993841E-6      100.9306362                  0.0

 RSNSHB               -345.0394378361   365.0732943555      -.3450394378E-6  .36507329436E-6      .66639255126E-4  .66639255126E-4
                      119.27403988023      160.9306362      .11927403988E-6      160.9306362      -.298777637E-20        0.0000000

            TERRA                 0.0              0.0      .34503943784E-6  .36507329436E-6                  0.0
                                  0.0              0.0      -.1192740399E-6      -19.0693638                  0.0

 RSNSHC               275.81406746631   365.0732943555      .27581406747E-6  .36507329436E-6      .66639255126E-4  .66639255126E-4
                      239.17589853342       40.9306362      .23917589853E-6       40.9306362      .6782881023E-21        0.0000000

            TERRA                 0.0              0.0      -.2758140675E-6  .36507329436E-6                  0.0
                                  0.0              0.0      -.2391758985E-6     -139.0693638                  0.0

 RSNNHA                70.42514520297  380.91773186916      .70425145203E-7  .38091773187E-6      .72549159226E-4  .72549159226E-4
                      -374.3509281082      -79.3456993      -.3743509281E-6      -79.3456993      .6088049308E-21        0.0000000

            TERRA                 0.0              0.0       -.704251452E-7  .38091773187E-6                  0.0
                                  0.0              0.0      .37435092811E-6      100.6543007                  0.0

 RSNNHB               -359.4099862735  380.91773186916      -.3594099863E-6  .38091773187E-6      .72549159226E-4  .72549159226E-4
                      126.18549924313      160.6543007      .12618549924E-6      160.6543007      -.150546871E-21        0.0000000

            TERRA                 0.0              0.0      .35940998627E-6  .38091773187E-6                  0.0
                                  0.0              0.0      -.1261854992E-6      -19.3456993                  0.0

 RSNNHC               288.98484107051  380.91773186916      .28898484107E-6  .38091773187E-6      .72549159226E-4  .72549159226E-4
                      248.16542886509       40.6543007      .24816542887E-6       40.6543007      -.149223383E-20        0.0000000

            TERRA                 0.0              0.0      -.2889848411E-6  .38091773187E-6                  0.0
                                  0.0              0.0      -.2481654289E-6     -139.3456993                  0.0

 X0001B                 -345.03943798  365.07329435709      -.1124207959E-4  .34407347378E-4       .1479831942E-6   .1479831942E-6
                      119.27403946857      160.9306363      -.3251893602E-4     -109.0707137      -.0062806018269       -0.0062806

            TERRA                 0.0              0.0      .11242079594E-4  .34407347378E-4                  0.0
                                  0.0              0.0      .32518936021E-4       70.9292863                  0.0

 X0002B               -214335.6180427  428661.08246257      .03498698170787  .04040035521511       .2040235876889   .2040235876889
                      -371228.4558816     -120.0007836      -.0202014804527      -30.0021336      -8659.029996788    -8659.0299968

            TERRA                 0.0              0.0      -.0349869817079  .04040035521511                  0.0
                                  0.0              0.0       .0202014804527      149.9978664                  0.0

 X0001A                69.22537079825  365.07329435709      .42849352155372  .43610706707519      .29012805217722  .95094686976E-7
                      -358.4499383325      -79.0693637      .08113369176499       10.7218172      -79.60499313674              0.0

            LN1A      69.225370369756   365.0732943555      -.4284935215537  .43610706707519      -.2901279570825
                      -358.4499384136      -79.0693638       -.081133691765     -169.2781828      79.604993136737

 SB1A                 428661.08242291    428661.082463      .42852479964495   .4454274607873      91845.595981555  .99202814852E-7
                      -5.862219862706       -0.0007836      .12154060602398       15.8346943      -26051.11992159        0.0000000

            X0002A    428661.08242249  428661.08246257      -.4285247996449   .4454274607873      -91845.59598146
                      -5.862219984247       -0.0007836       -.121540606024     -164.1653057      26051.119921585

 X0001B                 -345.03943798  365.07329435709      -.1439829020455  .43610707162329      .29012378895599   .9509468896E-7
                      119.27403946857      160.9306363      -.4116531329146     -109.2781797      -79.60499398248        0.0000000

            LN1B      -345.0394378361   365.0732943555      .14398290204554  .43610707162329      -.2901236938613
                      119.27403988023      160.9306362      .41165313291458       70.7218203      79.604993982476

 SB1B                 -214335.6180428    428661.082463      -.1089938450605  .44544135112258      91847.573273987  .99208989468E-7
                       -371228.455882     -120.0007836      -.4319008439779     -104.1633554      -26055.05876238        0.0000000

            X0002B    -214335.6180427  428661.08246257      .10899384506047  .44544135112258      -91847.57327389
                      -371228.4558816     -120.0007836      .43190084397793       75.8366446      26055.058762382

 X0001C                275.8140671818  365.07329435709      -.2845105768756  .43610704023678      .29012913343447  .95094675273E-7
                      239.17589886394       40.9306363      .33051941272788      130.7218164      -79.60498823377        0.0000000

            LN1C      275.81406746631   365.0732943555      .28451057687562  .43610704023678      -.2901290383398
                      239.17589853342       40.9306362      -.3305194127279      -49.2781836       79.60498823377

 SB1C                 -214325.4643801    428661.082463       -.319501850754  .44542875787103      91847.435632428  .99203390391E-7
                      371234.31810191      119.9992164      .31036324799061      135.8312361      -26045.65222243              0.0

            X0002C    -214325.4643798  428661.08246257      .31950185075402  .44542875787103      -91847.43563233
                       371234.3181016      119.9992164      -.3103632479906      -44.1687639      26045.652222427

 XX0005               428661.08242249  428661.08246257                  0.0              0.0                  0.0              0.0
                      -5.862219984247       -0.0007836                  0.0              0.0                  0.0              0.0

            X0002A    428661.08242249  428661.08246257                  0.0              0.0                  0.0
                      -5.862219984247       -0.0007836                  0.0              0.0                  0.0

 XX0003               -214335.6180427  428661.08246257                  0.0              0.0                  0.0              0.0
                      -371228.4558816     -120.0007836                  0.0              0.0                  0.0              0.0

            X0002B    -214335.6180427  428661.08246257                  0.0              0.0                  0.0
                      -371228.4558816     -120.0007836                  0.0              0.0                  0.0

 XX0004               -214325.4643798  428661.08246257                  0.0              0.0                  0.0              0.0
                       371234.3181016      119.9992164                  0.0              0.0                  0.0              0.0

            X0002C    -214325.4643798  428661.08246257                  0.0              0.0                  0.0
                       371234.3181016      119.9992164                  0.0              0.0                  0.0

 X0001A                69.22537079825  365.07329435709      .33783264496E-4  .34407347378E-4       .1479831942E-6   .1479831942E-6
                      -358.4499383325      -79.0693637      .65235414908E-5       10.9292863      -.0062806018269       -0.0062806

            TERRA                 0.0              0.0       -.337832645E-4  .34407347378E-4                  0.0
                                  0.0              0.0      -.6523541491E-5     -169.0707137                  0.0

 X0001A                69.22537079825  365.07329435709      -.4285918570517  .42859200208253      -14.77152258981  91845.552124557
                      -358.4499383325      -79.0693637      -.3525877183E-3     -179.9528648      76.826566372768        0.0000000

            X0002A    428661.08242249  428661.08246257      .42859185705169  .42859200208253      91860.323647147
                      -5.862219984247       -0.0007836      .35258771835E-3        0.0471352      -76.82656637277

 X0001B                 -345.03943798  365.07329435709      .21399057860469  .42859200208253      -14.77152258981  91845.552124557
                      119.27403946857      160.9306363      .37134772992108       60.0471352      76.826566372768        0.0000000

            X0002B    -214335.6180427  428661.08246257      -.2139905786047  .42859200208253      91860.323647147
                      -371228.4558816     -120.0007836      -.3713477299211     -119.9528648      -76.82656637277

 X0001C                275.8140671818  365.07329435709        .214601278447  .42859200208253      -14.77152258981  91845.552124557
                      239.17589886394       40.9306363      -.3709951422027      -59.9528648      76.826566372768        0.0000000

            X0002C    -214325.4643798  428661.08246257       -.214601278447  .42859200208253      91860.323647147
                       371234.3181016      119.9992164      .37099514220274      120.0471352      -76.82656637277

 X0002C               -214325.4643798  428661.08246257        -.03498848612  .04040035521511      .20402358768898  .20402358768898
                       371234.3181016      119.9992164      -.0201988747344     -150.0021336      -8659.029996788    -8659.0299968

            TERRA                 0.0              0.0      .03498848612003  .04040035521511                  0.0
                                  0.0              0.0       .0201988747344       29.9978664                  0.0

 X0002A               428661.08242249  428661.08246257        .150441216E-5  .04040035521511      .20402358768842  .20402358768842
                      -5.862219984247       -0.0007836       .0404003551871       89.9978664      -8659.029996788    -8659.0299968

            TERRA                 0.0              0.0       -.150441216E-5  .04040035521511                  0.0
                                  0.0              0.0      -.0404003551871      -90.0021336                  0.0

 X0001C                275.8140671818  365.07329435709       -.225411849E-4  .34407347378E-4       .1479831942E-6   .1479831942E-6
                      239.17589886394       40.9306363      .25995394531E-4      130.9292863      -.0062806018269       -0.0062806

            TERRA                 0.0              0.0      .22541184902E-4  .34407347378E-4                  0.0
                                  0.0              0.0      -.2599539453E-4      -49.0707137                  0.0

 X0001A                69.22537079825  365.07329435709      .64557704671E-4  .08078768908536      14.481400977905  .40791566923459
                      -358.4499383325      -79.0693637      -.0807876632912      -89.9542148      2.7847076210004   -17312.4786996

            X0002A    428661.08242249  428661.08246257      -.6455770467E-4  .08078768908536      -14.07348530867
                      -5.862219984247       -0.0007836      .08078766329122       90.0457852      -17315.26340717

 X0001B                 -345.03943798  365.07329435709      -.0699964475749  .08078768908536      14.481400977906  .40791566923555
                      119.27403946857      160.9306363      .04033792303336      150.0457852      2.7847076210004   -17312.4786996

            X0002B    -214335.6180427  428661.08246257      .06999644757492  .08078768908536      -14.07348530867
                      -371228.4558816     -120.0007836      -.0403379230334      -29.9542148      -17315.26340717

 X0001C                275.8140671818  365.07329435709      .06993188987025  .08078768908536      14.481400977905  .40791566923503
                      239.17589886394       40.9306363      .04044974025787       30.0457852      2.7847076210005   -17312.4786996

            X0002C    -214325.4643798  428661.08246257      -.0699318898702  .08078768908536      -14.07348530867
                       371234.3181016      119.9992164      -.0404497402579     -149.9542148      -17315.26340717

 LN1A                 69.225370369756   365.0732943555       .4284934492129  .43610706705665      .29005699731156  .28998444815233
                      -358.4499384136      -79.0693638      .08113407371992       10.7218683      -79.60499339194      -79.6049934

            VFF2A      70.42514520297  380.91773186916       -.704251456E-7   .3809177319E-6      -.7254915923E-4
                      -374.3509281082      -79.3456993      .37435092806E-6      100.6543008      .7590310485E-13

 LN1B                 -345.0394378361   365.0732943555      -.1439825556525  .43610706705665      .29005699731154  .28998444815234
                      119.27403988023      160.9306362      -.4116532492335     -109.2781317      -79.60499339194      -79.6049934

            VFF2B     -359.4099862735  380.91773186916      .35940998618E-6  .38091773174E-6       -.725491592E-4
                      126.18549924313      160.6543007      -.1261854991E-6      -19.3456992      .1247005488E-13

 LN1C                 275.81406746631   365.0732943555      -.2845108935604  .43610706705665       .2900569973117  .28998444815246
                      239.17589853342       40.9306362      .33051917551363      130.7218683      -79.60499339194      -79.6049934

            VFF2C     288.98484107051  380.91773186916      -.2889848408E-6  .38091773192E-6      -.7254915924E-4
                      248.16542886509       40.6543007      -.2481654293E-6     -139.3456992      .9502705775E-13
     Total network loss  P-loss  by summing injections =   2.757913171554E+05

Output for steady-state phasor switch currents.
      Node-K    Node-M            I-real            I-imag            I-magn          Degrees        Power            Reactive
      LN1A      COMPA         6.71260401E-08   -3.73452545E-07    3.79437358E-07     -79.8102    6.92554334E-05    8.95532897E-07
      LN1B      COMPB        -3.73001065E-07    1.25859724E-07    3.93662882E-07     161.3543    7.18559377E-05   -5.31387691E-07
      LN1C      COMPC         3.16876402E-07    2.66311942E-07    4.13923549E-07      40.0446    7.55471837E-05    1.16830907E-06
      VFF2A     RSNNHA        7.04251453E-08   -3.74350928E-07    3.80917732E-07     -79.3457    7.25491592E-05   -1.24427016E-14
      VFF2B     RSNNHB       -3.59409986E-07    1.26185499E-07    3.80917732E-07     160.6543    7.25491592E-05    3.97238444E-15
      VFF2C     RSNNHC        2.88984841E-07    2.48165429E-07    3.80917732E-07      40.6543    7.25491592E-05   -1.02916523E-13
      VFF2A     SE2A              Open              Open              Open             Open          Open              Open
      VFF2B     SE2B              Open              Open              Open             Open          Open              Open
      VFF2C     SE2C              Open              Open              Open             Open          Open              Open
      X0001B    XX0003            Open              Open              Open             Open          Open              Open
      X0001C    XX0004            Open              Open              Open             Open          Open              Open
      XX0005    X0002A            Open              Open              Open             Open          Open              Open
      XX0003    X0002B            Open              Open              Open             Open          Open              Open
      XX0004    X0002C            Open              Open              Open             Open          Open              Open
      X0001A    XX0005            Open              Open              Open             Open          Open              Open
      VFUENA    IFUENA        4.28924273E-01    1.21540601E-01    4.45811788E-01      15.8207    9.19314907E+04   -2.60498398E+04
      VFUENB    IFUENB       -1.09204889E-01   -4.32229617E-01    4.45811788E-01    -104.1793    9.19314907E+04   -2.60498398E+04
      VFUENC    IFUENC       -3.19719385E-01    3.10689017E-01    4.45811788E-01     135.8207    9.19314907E+04   -2.60498398E+04
      COMPA     RSNSHA        6.71260401E-08   -3.73452545E-07    3.79437358E-07     -79.8102    6.92554334E-05    8.95532897E-07
      COMPB     RSNSHB       -3.73001065E-07    1.25859724E-07    3.93662882E-07     161.3543    7.18559377E-05   -5.31387691E-07
      COMPC     RSNSHC        3.16876402E-07    2.66311942E-07    4.13923549E-07      40.0446    7.55471837E-05    1.16830907E-06

Solution at nodes with known voltage.   Nodes that are shorted together by switches are shown as a group of names, with the printed
result applying to the composite group.   The entry "MVA" is  SQRT( P**2 + Q**2 )  in units of power,  while  "P.F."  is the
associated power factor.
              Node                Source  node  voltage             Injected  source  current              Injected  source  power
              name         Rectangular            Polar          Rectangular            Polar            P  and  Q    MVA and P.F.

               VFUENA
              IFUENA       428660.705       428660.705      .42892427338174   .4458117875692      91931.490709715  95550.997578362
                                  0.0              0.0       .1215406007867       15.8206848      -26049.83980967        0.9621196

               VFUENB
              IFUENB     -214330.3525       428660.705      -.1092048888143  .44581178756669       91931.49070899  95550.997577825
                      -371231.0601341     -120.0000000      -.4322296174402     -104.1793152      -26049.83981026        0.9621196

               VFUENC
              IFUENC     -214330.3525       428660.705      -.3197193845691  .44581178757199      91931.490709982   95550.99757896
                      371231.06013415      120.0000000      .31068901665318      135.8206848      -26049.83981093        0.9621196

  +++  Node  "COMPC "  has no connected linear branches.  Add (to ground) the conductance  G = 1.00000000E-18  mhos.
  +++  Node  "COMPB "  has no connected linear branches.  Add (to ground) the conductance  G = 1.00000000E-18  mhos.
  +++  Node  "COMPA "  has no connected linear branches.  Add (to ground) the conductance  G = 1.00000000E-18  mhos.
Card of names for time-step loop output.          |  LN1A  LN1B  LN1C  COMPA COMPB COMPC SB1A  SB1B  SB1C  SE2A  SE2B  SE2C  VFF2A
Card of names for time-step loop output.          |  VFF2B VFF2C IFUENAIFUENBIFUENC
Card of names for time-step loop output.          |-5VFF2A VFF2B VFF2B VFF2C VFF2C VFF2A LN1A  LN1B  LN1B  LN1C  LN1C  LN1A
Card of names for time-step loop output.          |-5SB1A  SB1B  SB1B  SB1C  SB1C  SB1A
Blank card ending requests for output variables.  |BLANK OUTPUT

Column headings for the  55   EMTP output variables follow.  These are divided among the 5 possible classes as follows ....
  First  27     output variables are electric-network voltage differences (upper voltage minus lower voltage);
  Next   6     output variables are branch currents (flowing from the upper node to the lower node);
  Next   22     output variables belong to MODELS (with "MODELS" an internally-added upper name of pair).
   Step      Time      LN1A       LN1B       LN1C       COMPA      COMPB      COMPC      SB1A       SB1B       SB1C       SE2A
 

                       SE2B       SE2C       VFF2A      VFF2B      VFF2C      IFUENA     IFUENB     IFUENC     VFF2A      VFF2B
                                                                                                               VFF2B      VFF2C

                       VFF2C      LN1A       LN1B       LN1C       SB1A       SB1B       SB1C       VFUENA     VFUENB     VFUENC
                       VFF2A      LN1B       LN1C       LN1A       SB1B       SB1C       SB1A       IFUENA     IFUENB     IFUENC

                       COMPA      COMPB      COMPC      MODELS     MODELS     MODELS     MODELS     MODELS     MODELS     MODELS
                       RSNSHA     RSNSHB     RSNSHC     ANVOL      LONG       R0F        R1F        X0F        X1F        RDIVX

                       MODELS     MODELS     MODELS     MODELS     MODELS     MODELS     MODELS     MODELS     MODELS     MODELS
                       RINSER     CLOSE1     RPPOS      RPCERO     LPPOS      LPCERO     CPPOS      CPCERO     XP         CR

                       MODELS     MODELS     MODELS     MODELS     MODELS
                       SIMET      ENC1       ENC2       ENC1AS     ENC2AS
 ***      Phasor I(0) =  6.7126040E-08                     Switch  "LN1A  "  to  "COMPA "  closed in the steady-state.
 ***      Phasor I(0) = -3.7300106E-07                     Switch  "LN1B  "  to  "COMPB "  closed in the steady-state.
 ***      Phasor I(0) =  3.1687640E-07                     Switch  "LN1C  "  to  "COMPC "  closed in the steady-state.
 ***      Phasor I(0) =  7.0425145E-08                     Switch  "VFF2A "  to  "RSNNHA"  closed in the steady-state.
 ***      Phasor I(0) = -3.5940999E-07                     Switch  "VFF2B "  to  "RSNNHB"  closed in the steady-state.
 ***      Phasor I(0) =  2.8898484E-07                     Switch  "VFF2C "  to  "RSNNHC"  closed in the steady-state.
 ***      Phasor I(0) =  4.2892427E-01                     Switch  "VFUENA"  to  "IFUENA"  closed in the steady-state.
 ***      Phasor I(0) = -1.0920489E-01                     Switch  "VFUENB"  to  "IFUENB"  closed in the steady-state.
 ***      Phasor I(0) = -3.1971938E-01                     Switch  "VFUENC"  to  "IFUENC"  closed in the steady-state.
 ***      Phasor I(0) =  6.7126040E-08                     Switch  "COMPA "  to  "RSNSHA"  closed in the steady-state.
 ***      Phasor I(0) = -3.7300106E-07                     Switch  "COMPB "  to  "RSNSHB"  closed in the steady-state.
 ***      Phasor I(0) =  3.1687640E-07                     Switch  "COMPC "  to  "RSNSHC"  closed in the steady-state.
      0       0.0  69.2253704 -345.03944 275.814067 69.2253704 -345.03944 275.814067 428661.082 -214335.62 -214325.46        0.0
                          0.0        0.0 70.4251452 -359.40999 288.984841 428660.705 -214330.35 -214330.35 429.835131 -648.39483
                   218.559696 414.264808 -620.85351 206.588697   642996.7 -10.153663 -642986.55 .428924273 -.10920489 -.31971938
                    .67126E-7   -.373E-6 .316876E-6        0.0   297.0829   3.661192   2.770406   17.02434   12.88224    .215056
                         420.    .047657     .02718    .258339    .242926   1.021268    .012438    .005406    1325.28   26.50559
                          0.0        0.0        0.0        0.0        0.0
    500     .5E-3  124.446097 -359.44954 235.003438 124.446097 -359.44954 235.003438 423384.455 -153623.86  -269760.6        0.0
                          0.0        0.0  128.11948 -374.72481 246.605329  423383.18 -153618.26 -269764.92  502.84429 -621.33014
                   118.485849 483.895632 -594.45297 110.557341 577008.314 116136.738 -693145.05 .404650111 -.04025121  -.3643989
                   .129936E-6 -.36123E-6 .259708E-6        0.0   297.0829   3.661192   2.770406   17.02434   12.88224    .215056
                         420.    .047657     .02718    .258339    .242926   1.021268    .012438    .005406    1325.28   26.50559
                          0.0        0.0        0.0        0.0        0.0
   1000     .1E-2  176.604155  -365.0096 188.405442 176.604155  -365.0096 188.405442 407682.721 -89129.382 -318553.34        0.0
                          0.0        0.0 182.652658 -380.80945 198.156789 407680.557 -89123.572 -318556.98 563.462105 -578.96624
                   15.5041304 541.613753 -553.41504 11.8012868 496812.102 229423.958 -726236.06 .370396474 .029701415 -.40009789
                   .192801E-6  -.3561E-6 .191721E-6        0.0   297.0829   3.661192   2.770406   17.02434   12.88224    .215056
                         420.    .047657     .02718    .258339    .242926   1.021268    .012438    .005406    1325.28   26.50559
                          0.0        0.0        0.0        0.0        0.0
   1500     .0015  224.413099 -361.58165  137.16855 224.413099 -361.58165  137.16855 381942.481 -22440.241 -359502.24        0.0
                          0.0        0.0 232.699855 -377.52306 144.823208 381939.485 -22434.368 -359505.12 610.222918 -522.34627
                   -87.876647 585.994749  -498.7502 -87.244549 404382.722 337061.998 -741444.72 .327018708 .098924561 -.42594327
                   .224871E-6 -.38729E-6 .133994E-6        0.0   297.0829   3.661192   2.770406   17.02434   12.88224    .215056
                         420.    .047657     .02718    .258339    .242926   1.021268    .012438    .005406    1325.28   26.50559
                          0.0        0.0        0.0        0.0        0.0
   2000      .002  266.692663 -349.24856 82.5559009 266.692663 -349.24856 82.5559009 346797.568 44801.4428 -391599.01        0.0
                          0.0        0.0 277.012884 -364.93864 87.9257585 346793.795 44807.2448 -391601.04 641.951527  -452.8644
                   -189.08713 615.941226 -431.80446 -184.13676 301996.125 436400.454 -738396.58  .27559353 .165709425 -.44130296
                   .267379E-6 -.36761E-6 .860164E-7        0.0   297.0829   3.661192   2.770406   17.02434   12.88224    .215056
                         420.    .047657     .02718    .258339    .242926   1.021268    .012438    .005406    1325.28   26.50559
                          0.0        0.0        0.0        0.0        0.0
   2500     .0025  302.412054 -328.31916 25.9071097 302.412054 -328.31916 25.9071097  303113.34 110939.971 -414053.31        0.0
                          0.0        0.0 314.504166 -343.36784 28.8636749 303108.891 110945.554 -414054.45 657.872008 -372.23152
                   -285.64049 630.731217 -354.22627 -276.50494 192173.369 524993.282 -717166.65 .217374441 .228417911 -.44579235
                   .309949E-6 -.34024E-6 .267555E-7        0.0   297.0829   3.661192   2.770406   17.02434   12.88224    .215056
                         420.    .047657     .02718    .258339    .242926   1.021268    .012438    .005406    1325.28   26.50559
                          0.0        0.0        0.0        0.0        0.0
   3000      .003  330.681735 -299.30379  -31.37794 330.681735 -299.30379  -31.37794 251965.423 174346.805 -426312.23        0.0
                          0.0        0.0 344.250216 -313.34163 -30.908587 251960.441 174352.016 -426312.46 657.591844 -282.43304
                    -375.1588  629.98553 -267.92585 -362.05968 77618.6183 600659.033 -678277.65 .153802297  .28550227 -.43930457
                   .349822E-6 -.30685E-6 -.32302E-7        0.0   297.0829   3.661192   2.770406   17.02434   12.88224    .215056
                         420.    .047657     .02718    .258339    .242926   1.021268    .012438    .005406    1325.28   26.50559
                          0.0        0.0        0.0        0.0        0.0
   3500     .0035  350.808856 -262.91854 -87.890318 350.808856 -262.91854 -87.890318 194613.288 233460.639 -428073.93        0.0
                          0.0        0.0 365.521666  -275.6009 -89.920764 194607.888 233465.353 -428073.24 641.122567 -185.68014
                   -455.44243 613.727395 -175.02822 -438.69917 -38847.351 661534.566 -622687.22 .086445376 .335555444 -.42200082
                   .377594E-6 -.30175E-6 -.90069E-7        0.0   297.0829   3.661192   2.770406   17.02434   12.88224    .215056
                         420.    .047657     .02718    .258339    .242926   1.021268    .012438    .005406    1325.28   26.50559
                          0.0        0.0        0.0        0.0        0.0
   4000      .004  362.298064 -220.05943 -142.23864 362.298064 -220.05943 -142.23864 132469.166 286825.878 -419295.04        0.0
                          0.0        0.0 377.791333 -231.07325 -146.71808 132463.443 286829.997 -419293.44 608.864585 -84.355171
                   -524.50941 582.357492 -77.820793  -504.5367 -154356.71 706120.921 -551764.21 .016962175 .377344994 -.39430717
                   .384631E-6 -.22771E-6 -.15693E-6        0.0   297.0829   3.661192   2.770406   17.02434   12.88224    .215056
                         420.    .047657     .02718    .258339    .242926   1.021268    .012438    .005406    1325.28   26.50559
                          0.0        0.0        0.0        0.0        0.0
   4500     .0045  364.865944 -171.78156 -193.08438 364.865944 -171.78156 -193.08438 67063.1545 333128.541  -400191.7        0.0
                          0.0        0.0 380.758827 -180.85597 -199.90286 67057.3081 333131.936 -400189.24 561.614796 19.0468908
                   -580.66169 536.647504 21.3028241 -557.95033 -266065.39 733320.237 -467254.85 -.05294179 .409844589  -.3569028
                   .389757E-6 -.17601E-6 -.21374E-6        0.0   297.0829   3.661192   2.770406   17.02434   12.88224    .215056
                         420.    .047657     .02718    .258339    .242926   1.021268    .012438    .005406    1325.28   26.50559
                          0.0        0.0        0.0        0.0        0.0
   5000      .005  358.449799 -119.27395 -239.17585 358.449799 -119.27395 -239.17585 5.85519343 371228.459 -371234.31        0.0
                          0.0        0.0 374.350891 -126.18546 -248.16543 -.45661E-7  371231.06 -371231.06 500.536347 121.979979
                   -622.51633  477.72375 119.901899 -597.62565  -371222.6 742462.774 -371240.17 -.12153993 .432251353 -.31071142
                   .402139E-6   -.121E-6 -.25271E-6        0.0   297.0829   3.661192   2.770406   17.02434   12.88224    .215056
                         420.    .047657     .02718    .258339    .242926   1.021268    .012438    .005406    1325.28   26.50559
                          0.0        0.0        0.0        0.0        0.0
   5500     .0055  343.207535 -63.829475 -279.37806 343.207535 -63.829475 -279.37806  -67051.58 400187.497 -333135.92        0.0
                          0.0        0.0 358.724849  -68.40768 -290.31717 -67057.308 400189.244 -333131.94 427.132529 221.909489
                   -649.04202  407.03701 215.548584 -622.58559 -467239.08 733323.414 -266084.34 -.18714607 .444015008 -.25686894
                   .377475E-6 -.69585E-7 -.29372E-6        0.0   297.0829   3.661192   2.770406   17.02434   12.88224    .215056
                         420.    .047657     .02718    .258339    .242926   1.021268    .012438    .005406    1325.28   26.50559
                          0.0        0.0        0.0        0.0        0.0
   6000      .006  319.513873  -6.813051 -312.70082 319.513873  -6.813051 -312.70082 -132457.98 419292.591 -286834.61        0.0
                          0.0        0.0 334.266306 -8.9457225 -325.32058 -132463.44  419293.44   -286830. 343.212028 316.374861
                   -659.58689 326.326924 305.887771  -632.2147 -551750.57 706127.197 -154376.62 -.24814447 .444845751 -.19670128
                   .334617E-6 -.75724E-8 -.32259E-6        0.0   297.0829   3.661192   2.770406   17.02434   12.88224    .215056
                         420.    .047657     .02718    .258339    .242926   1.021268    .012438    .005406    1325.28   26.50559
                          0.0        0.0        0.0        0.0        0.0
   6500     .0065  287.953523 50.3707212 -338.32424 287.953523 50.3707212 -338.32424 -194602.84 428073.314 -233470.47        0.0
                          0.0        0.0 301.577796 50.7361169 -352.31391 -194607.89  428073.24 -233465.35 250.841679  403.05003
                   -653.89171 237.582802 388.694966 -626.27777 -622676.16 661543.785 -38867.629 -.30303133 .434722211 -.13169088
                   .329271E-6 .500986E-7 -.33676E-6        0.0   297.0829   3.661192   2.770406   17.02434   12.88224    .215056
                         420.    .047657     .02718    .258339    .242926   1.021268    .012438    .005406    1325.28   26.50559
                          0.0        0.0        0.0        0.0        0.0
   7000      .007  249.302516 106.314342 -355.61686 249.302516 106.314342 -355.61686 -251955.92 426313.445 -174357.52        0.0
                          0.0        0.0 261.460772 109.170006 -370.63078 -251960.44 426312.457 -174352.02 152.290766 479.800784
                   -632.09155 142.988174 461.931199 -604.91937 -678269.37  600670.97 77598.3959 -.35045827 .413895235 -.06343696
                   .253074E-6 .117473E-6 -.35635E-6        0.0   297.0829   3.661192   2.770406   17.02434   12.88224    .215056
                         420.    .047657     .02718    .258339    .242926   1.021268    .012438    .005406    1325.28   26.50559
                          0.0        0.0        0.0        0.0        0.0
   7500     .0075  204.512921 159.640124 -364.15304 204.512921 159.640124 -364.15304   -303105. 414056.319 -110951.32        0.0
                          0.0        0.0 214.908193 164.914522 -379.82272 -303108.89 414054.446 -110945.55 49.9936706 544.737238
                   -594.73091 44.8727967 523.793168 -568.66597 -717161.31 525007.642 192153.672 -.38925701 .382877406 .006379609
                   .203052E-6 .166883E-6 -.39834E-6        0.0   297.0829   3.661192   2.770406   17.02434   12.88224    .215056
                         420.    .047657     .02718    .258339    .242926   1.021268    .012438    .005406    1325.28   26.50559
                          0.0        0.0        0.0        0.0        0.0
   8000      .008  154.686716 209.035441 -363.72216 154.686716 209.035441 -363.72216 -346790.66 391603.773 -44813.111        0.0
                          0.0        0.0 163.062948  216.59875  -379.6617  -346793.8  391601.04 -44807.245 -53.535803 596.260448
                   -542.72465 -54.348725 572.757597 -518.40887 -738394.44 436416.884 301977.552 -.41846605 .342429403 .076036649
                   .168661E-6 .213077E-6 -.35332E-6        0.0   297.0829   3.661192   2.770406   17.02434   12.88224    .215056
                         420.    .047657     .02718    .258339    .242926   1.021268    .012438    .005406    1325.28   26.50559
                          0.0        0.0        0.0        0.0        0.0
   8500     .0085  101.052806 253.283016 -354.33582 101.052806 253.283016 -354.33582 -381937.16 359508.626 22428.5332        0.0
                          0.0        0.0 107.201286 262.950241 -370.15153 -381939.48 359505.117 22434.3679 -155.74895 633.101768
                   -477.35281 -152.23021 607.618838 -455.38863 -741445.79 337080.093 404365.693 -.43737519  .29355172 .143823468
                   .994499E-7 .265259E-6 -.39313E-6        0.0   297.0829   3.661192   2.770406   17.02434   12.88224    .215056
                         420.    .047657     .02718    .258339    .242926   1.021268    .012438    .005406    1325.28   26.50559
                          0.0        0.0        0.0        0.0        0.0
   9000      .009  44.9299304 291.294274  -336.2242 44.9299304 291.294274  -336.2242 -407679.11 318561.189 89117.9166        0.0
                          0.0        0.0   48.70262 302.825688 -351.52831 -407680.56 318556.985  89123.572 -254.12307 654.353997
                   -400.23093 -246.36434 627.518479 -381.15414 -726240.29 229443.272 496797.022  -.4455139  .23744542  .20806848
                   .470136E-7 .323238E-6 -.35603E-6        0.0   297.0829   3.661192   2.770406   17.02434   12.88224    .215056
                         420.    .047657     .02718    .258339    .242926   1.021268    .012438    .005406    1325.28   26.50559
                          0.0        0.0        0.0        0.0        0.0
   9500     .0095  -12.300963 322.133758 -309.83279 -12.300963 322.133758 -309.83279 -423382.64 269769.717 153612.921        0.0
                          0.0        0.0 -10.996597 335.245233 -324.24864 -423383.18 269764.922 153618.258 -346.24183  659.49387
                   -313.25204 -334.43472 631.966552 -297.53183 -693152.36 116156.796  576995.56 -.44268195 .175492111 .267189841
                   -.12664E-7 .315548E-6 -.31531E-6        0.0   297.0829   3.661192   2.770406   17.02434   12.88224    .215056
                         420.    .047657     .02718    .258339    .242926   1.021268    .012438    .005406    1325.28   26.50559
                          0.0        0.0        0.0        0.0        0.0
  10000       .01  -69.224945 345.039217 -275.81427 -69.224945 345.039217 -275.81427 -428661.08 214335.618 214325.464        0.0
                          0.0        0.0 -70.425164 359.409985 -288.98482 -428660.71 214330.353 214330.352 -429.83515 648.394807
                   -218.55966 -414.26416 620.853489 -206.58933  -642996.7 10.1542137 642986.546 -.42894899 .109217247 .319731743
                   -.76408E-7 .342619E-6 -.30891E-6        0.0   297.0829   3.661192   2.770406   17.02434   12.88224    .215056
                         420.    .047657     .02718    .258339    .242926   1.021268    .012438    .005406    1325.28   26.50559
                          0.0        0.0        0.0        0.0        0.0
  10500     .0105  -124.44705 359.450006 -235.00296 -124.44705 359.450006 -235.00296 -423384.47 153623.867 269760.605        0.0
                          0.0        0.0  -128.1208 374.725462 -246.60467 -423383.18 153618.258 269764.922 -502.84626 621.330129
                   -118.48387 -483.89706 594.452964 -110.55591 -577008.34 -116136.74 693145.077 -.40465595 .040254128 .364401827
                   -.12867E-6 .392022E-6 -.23493E-6        0.0   297.0829   3.661192   2.770406   17.02434   12.88224    .215056
                         420.    .047657     .02718    .258339    .242926   1.021268    .012438    .005406    1325.28   26.50559
                          0.0        0.0        0.0        0.0        0.0
  11000      .011  -176.60441 365.009717 -188.40531 -176.60441 365.009717 -188.40531 -407682.73 89129.3854 318553.343        0.0
                          0.0        0.0 -182.65861 380.812419 -198.15381 -407680.56  89123.572 318556.985 -563.47103 578.966224
                   -15.495192 -541.61413 553.415024 -11.800896 -496812.11 -229423.96 726236.071  -.3703975  -.0297009 .400098405
                   -.19771E-6 .402533E-6 -.20482E-6        0.0   297.0829   3.661192   2.770406   17.02434   12.88224    .215056
                         420.    .047657     .02718    .258339    .242926   1.021268    .012438    .005406    1325.28   26.50559
                          0.0        0.0        0.0        0.0        0.0
  11500     .0115  -224.41346 361.581822 -137.16837 -224.41346 361.581822 -137.16837 -381942.48 22440.2407 359502.239        0.0
                          0.0        0.0 -232.70112 377.523687 -144.82257 -381939.48 22434.3679 359505.117  -610.2248 522.346256
                   87.8785478 -585.99528 498.750187 87.2450898 -404382.72   -337062. 741444.719 -.32701714 -.09892534 .425942486
                   -.22626E-6 .387605E-6 -.13293E-6        0.0   297.0829   3.661192   2.770406   17.02434   12.88224    .215056
                         420.    .047657     .02718    .258339    .242926   1.021268    .012438    .005406    1325.28   26.50559
                          0.0        0.0        0.0        0.0        0.0
  12000      .012  -266.69534   349.2499 -82.554558 -266.69534   349.2499 -82.554558 -346797.55 -44801.453 391599.001        0.0
                          0.0        0.0 -277.00834 364.936374 -87.928029  -346793.8 -44807.245  391601.04 -641.94472 452.864403
                   189.080316 -615.94524 431.804459 184.140784 -301996.09 -436400.45 738396.549 -.27558844 -.16571197 .441300402
                   -.27259E-6 .337594E-6 -.93445E-7        0.0   297.0829   3.661192   2.770406   17.02434   12.88224    .215056
                         420.    .047657     .02718    .258339    .242926   1.021268    .012438    .005406    1325.28   26.50559
                          0.0        0.0        0.0        0.0        0.0
  12500     .0125  -302.41217 328.319213 -25.907046 -302.41217 328.319213 -25.907046 -303113.31 -110939.99 414053.294        0.0
                          0.0        0.0 -314.50383 343.367666 -28.863837 -303108.89 -110945.55 414054.446  -657.8715 372.231503
                   285.639993 -630.73138 354.226259 276.505122 -192173.32 -524993.28 717166.599 -.21737115 -.22841955 .445790699
                   -.33665E-6 .347613E-6 -.28704E-7        0.0   297.0829   3.661192   2.770406   17.02434   12.88224    .215056
                         420.    .047657     .02718    .258339    .242926   1.021268    .012438    .005406    1325.28   26.50559
                          0.0        0.0        0.0        0.0        0.0
  13000      .013  -330.68262 299.304236  31.378385 -330.68262 299.304236  31.378385 -251965.41 -174346.81 426312.222        0.0
                          0.0        0.0  -344.2512 313.342117 30.9090798 -251960.44 -174352.02 426312.457 -657.59331 282.433037
                   375.160277 -629.98686 267.925851 362.061006 -77618.599 -600659.03 678277.632 -.15380336 -.28550173 .439305097
                   -.32369E-6 .291625E-6 .320488E-7        0.0   297.0829   3.661192   2.770406   17.02434   12.88224    .215056
                         420.    .047657     .02718    .258339    .242926   1.021268    .012438    .005406    1325.28   26.50559
                          0.0        0.0        0.0        0.0        0.0
  13500     .0135  -350.80846 262.918334 87.8901265 -350.80846 262.918334 87.8901265 -194613.28 -233460.64 428073.922        0.0
                          0.0        0.0 -365.52147 275.600798 89.9206739 -194607.89 -233465.35  428073.24 -641.12227 185.680124
                   455.442146 -613.72679 175.028207 438.698587 38847.3641 -661534.57 622687.201 -.08644545  -.3355554 .422000856
                   -.38469E-6 .303818E-6 .950604E-7        0.0   297.0829   3.661192   2.770406   17.02434   12.88224    .215056
                         420.    .047657     .02718    .258339    .242926   1.021268    .012438    .005406    1325.28   26.50559
                          0.0        0.0        0.0        0.0        0.0
  14000      .014  -362.29821 220.059502 142.238713 -362.29821 220.059502 142.238713 -132469.14 -286825.89  419295.03        0.0
                          0.0        0.0 -377.79301 231.074087 146.718924 -132463.44   -286830.  419293.44  -608.8671 84.3551633
                   524.511935 -582.35772 77.8207896 504.536927 154356.752 -706120.92 551764.169 -.01696093 -.37734561  .39430654
                   -.36925E-6 .243883E-6 .153785E-6        0.0   297.0829   3.661192   2.770406   17.02434   12.88224    .215056
                         420.    .047657     .02718    .258339    .242926   1.021268    .012438    .005406    1325.28   26.50559
                          0.0        0.0        0.0        0.0        0.0
  14500     .0145  -364.86604 171.781599 193.084438 -364.86604 171.781599 193.084438 -67063.157 -333128.54 400191.697        0.0
                          0.0        0.0 -380.75878 180.855937 199.902843 -67057.308 -333131.94 400189.244 -561.61472 -19.046907
                   580.661623 -536.64764 -21.302839 557.950475 266065.383 -733320.24 467254.853 .052941678 -.40984454 .356902857
                   -.38034E-6 .171542E-6  .20882E-6        0.0   297.0829   3.661192   2.770406   17.02434   12.88224    .215056
                         420.    .047657     .02718    .258339    .242926   1.021268    .012438    .005406    1325.28   26.50559
                          0.0        0.0        0.0        0.0        0.0
  % % % % % %   Suspended simulation;  plot data space exhausted;  SPY SPACE is required.   LIMBUF =  840000.
  % % % % % %   Suspended simulation;  plot data space exhausted;  SPY SPACE is required.   LIMBUF =  840000.
  +++  Time-sharing disabled.   Send  user-keyed interrupt to silence alarm.
   Current values.  INDBUF  INDBEG  LIMBUF  MFLUSH  NUMDCD  KCARD1  KCARD2
                    839994      50  840000    1000     230       1     231
Plot timespan now in memory (in sec) = 0.00000000E+00   1.49990000E-02
   ++++  Begin plot-data copy from memory to disk.   MFLUSH, INDBUF, N4, Tbeg,  Tend = 1001  839994       1  -1.00000E+00
1.00000E+19
  15000      .015   -358.4505 119.274297 239.176206  -358.4505 119.274297 239.176206 -5.8555201 -371228.46 371234.315        0.0
                          0.0        0.0 -374.35101 126.185516 248.165497 -.61533E-6 -371231.06  371231.06 -500.53653 -121.97998
                    622.51651  -477.7248 -119.90191 597.626709 371222.604 -742462.77  371240.17 .121541077 -.43225192 .310710848
                   -.39865E-6   .1191E-6 .251137E-6        0.0   297.0829   3.661192   2.770406   17.02434   12.88224    .215056
                         420.    .047657     .02718    .258339    .242926   1.021268    .012438    .005406    1325.28   26.50559
                          0.0        0.0        0.0        0.0        0.0
  15500     .0155  -343.20764 63.8295162  279.37812 -343.20764 63.8295162  279.37812 67051.5719 -400187.49 333135.921        0.0
                          0.0        0.0 -358.72512 68.4078057 290.317313 67057.3081 -400189.24 333131.936 -427.13292 -221.90951
                   649.042432 -407.03715  -215.5486 622.585756 467239.065 -733323.41 266084.349 .187146723 -.44401534 .256868614
                   -.33158E-6 .691797E-7 .297965E-6        0.0   297.0829   3.661192   2.770406   17.02434   12.88224    .215056
                         420.    .047657     .02718    .258339    .242926   1.021268    .012438    .005406    1325.28   26.50559
                          0.0        0.0        0.0        0.0        0.0
  16000      .016  -319.51425 6.81323941 312.701015 -319.51425 6.81323941 312.701015 132457.985 -419292.59 286834.606        0.0
                          0.0        0.0 -334.26632 8.94572578 325.320596 132463.443 -419293.44 286829.997 -343.21205 -316.37487
                   659.586917 -326.32749 -305.88778 632.215269 551750.576  -706127.2 154376.621  .24814481 -.44484592 .196701111
                   -.31629E-6 .693568E-8 .313768E-6        0.0   297.0829   3.661192   2.770406   17.02434   12.88224    .215056
                         420.    .047657     .02718    .258339    .242926   1.021268    .012438    .005406    1325.28   26.50559
                          0.0        0.0        0.0        0.0        0.0
  16500     .0165   -287.9536 -50.370693 338.324288  -287.9536 -50.370693 338.324288 194602.836 -428073.31 233470.475        0.0
                          0.0        0.0 -301.57682 -50.736616 352.313434 194607.888 -428073.24 233465.353  -250.8402 -403.05005
                   653.890251  -237.5829 -388.69498 626.277883 622676.146 -661543.79 38867.6391 .303032459 -.43472278  .13169032
                   -.33012E-6 -.55636E-7 .364438E-6        0.0   297.0829   3.661192   2.770406   17.02434   12.88224    .215056
                         420.    .047657     .02718    .258339    .242926   1.021268    .012438    .005406    1325.28   26.50559
                          0.0        0.0        0.0        0.0        0.0
  17000      .017   -249.3026 -106.31431 355.616902  -249.3026 -106.31431 355.616902 251955.925 -426313.45 174357.523        0.0
                          0.0        0.0 -261.46131 -109.16974 370.631052 251960.441 -426312.46 174352.016 -152.29157 -479.80079
                   632.092364 -142.98829 -461.93121 604.919498 678269.372 -600670.97 -77598.402 .350458545 -.41389537 .063436824
                   -.26866E-6 -.11051E-6 .364962E-6        0.0   297.0829   3.661192   2.770406   17.02434   12.88224    .215056
                         420.    .047657     .02718    .258339    .242926   1.021268    .012438    .005406    1325.28   26.50559
                          0.0        0.0        0.0        0.0        0.0
  17500     .0175  -204.51253 -159.64032 364.152855 -204.51253 -159.64032 364.152855  303105.01 -414056.33 110951.316        0.0
                          0.0        0.0 -214.90802 -164.91462 379.822638 303108.891 -414054.45 110945.554 -49.993405 -544.73725
                    594.73066 -44.872209 -523.79318 568.665387 717161.336 -525007.64 -192153.69 .389255828 -.38287681 -.00637902
                   -.21711E-6 -.17624E-6 .393367E-6        0.0   297.0829   3.661192   2.770406   17.02434   12.88224    .215056
                         420.    .047657     .02718    .258339    .242926   1.021268    .012438    .005406    1325.28   26.50559
                          0.0        0.0        0.0        0.0        0.0
  18000      .018  -154.68711 -209.03525 363.722358 -154.68711 -209.03525 363.722358 346790.656 -391603.77 44813.1141        0.0
                          0.0        0.0 -163.06331 -216.59858 379.661883 346793.795 -391601.04 44807.2448 53.5352679 -596.26046
                   542.725191 54.3481424 -572.75761 518.409466 738394.425 -436416.88 -301977.54 .418467145 -.34242995 -.07603719
                   -.15311E-6 -.20573E-6 .387256E-6        0.0   297.0829   3.661192   2.770406   17.02434   12.88224    .215056
                         420.    .047657     .02718    .258339    .242926   1.021268    .012438    .005406    1325.28   26.50559
                          0.0        0.0        0.0        0.0        0.0
  18500     .0185   -101.0524 -253.28322 354.335622  -101.0524 -253.28322 354.335622 381937.153 -359508.62  -22428.53        0.0
                          0.0        0.0 -107.20219 -262.94979 370.151976 381939.485 -359505.12 -22434.368 155.747602 -633.10177
                   477.354163 152.230813 -607.61884 455.388026 741445.776 -337080.09 -404365.68 .437375792 -.29355202 -.14382377
                   -.10455E-6 -.27571E-6 .380271E-6        0.0   297.0829   3.661192   2.770406   17.02434   12.88224    .215056
                         420.    .047657     .02718    .258339    .242926   1.021268    .012438    .005406    1325.28   26.50559
                          0.0        0.0        0.0        0.0        0.0
  19000      .019  -44.930354 -291.29407 336.224423 -44.930354 -291.29407 336.224423 407679.101 -318561.19 -89117.915        0.0
                          0.0        0.0 -48.702621  -302.8257 351.528316 407680.557 -318556.98 -89123.572 254.123074 -654.35401
                   400.230937 246.363716 -627.51849 381.154777 726240.288 -229443.27 -496797.02 .445514056  -.2374455 -.20806856
                   -.46521E-7 -.31226E-6 .365893E-6        0.0   297.0829   3.661192   2.770406   17.02434   12.88224    .215056
                         420.    .047657     .02718    .258339    .242926   1.021268    .012438    .005406    1325.28   26.50559
                          0.0        0.0        0.0        0.0        0.0
  19500     .0195  12.2996663 -322.13311 309.833444 12.2996663 -322.13311 309.833444 423382.637 -269769.72 -153612.92        0.0
                          0.0        0.0 10.9981083 -335.24599 324.247885  423383.18 -269764.92 -153618.26 346.244101 -659.49388
                   313.249777 334.432776 -631.96655 297.533777 693152.354  -116156.8 -576995.56 .442681632 -.17549195 -.26718968
                   .124768E-7  -.3483E-6  .33938E-6        0.0   297.0829   3.661192   2.770406   17.02434   12.88224    .215056
                         420.    .047657     .02718    .258339    .242926   1.021268    .012438    .005406    1325.28   26.50559
                          0.0        0.0        0.0        0.0        0.0
  20000       .02  69.2252601 -345.03938 275.814123 69.2252601 -345.03938 275.814123 428661.082 -214335.62 -214325.46        0.0
                          0.0        0.0 70.4250305 -359.40993 288.984897 428660.705 -214330.35 -214330.35 429.834958 -648.39482
                   218.559866 414.264643 -620.85351 206.588863   642996.7 -10.154231 -642986.55 .428949753 -.10921763 -.31973212
                   .679174E-7 -.37386E-6 .277505E-6        0.0   297.0829   3.661192   2.770406   17.02434   12.88224    .215056
                         420.    .047657     .02718    .258339    .242926   1.021268    .012438    .005406    1325.28   26.50559
                          0.0        0.0        0.0        0.0        0.0
  20500     .0205  124.447563 -359.45027 235.002703 124.447563 -359.45027 235.002703 423384.474 -153623.87 -269760.61        0.0
                          0.0        0.0 128.119713 -374.72492  246.60521  423383.18 -153618.26 -269764.92 502.844637 -621.33013
                   118.485497  483.89783 -594.45297  110.55514 577008.343 116136.738 -693145.08  .40465461 -.04025346 -.36440115
                   .136432E-6 -.38888E-6 .238259E-6        0.0   297.0829   3.661192   2.770406   17.02434   12.88224    .215056
                         420.    .047657     .02718    .258339    .242926   1.021268    .012438    .005406    1325.28   26.50559
                          0.0        0.0        0.0        0.0        0.0
  21000      .021  176.604627 -365.00984 188.405209 176.604627 -365.00984 188.405209 407682.727 -89129.385 -318553.34        0.0
                          0.0        0.0 182.659046 -380.81264 198.153599 407680.557 -89123.572 -318556.98  563.47169 -578.96624
                   15.4945531 541.614462 -553.41504 11.8005818 496812.112 229423.958 -726236.07 .370397941 .029700683 -.40009862
                   .197145E-6 -.37363E-6  .20492E-6        0.0   297.0829   3.661192   2.770406   17.02434   12.88224    .215056
[...]
                         420.    .047657     .02718    .258339    .242926   1.021268    .012438    .005406    1325.28   26.50559
                          0.0        0.0        0.0        0.0        0.0
 113000      .113  -229231.29  -204304.6 433535.886 -229231.29  -204304.6 433535.886 -229231.29  -204304.6 433535.886        0.0
                          0.0        0.0 -215541.35 -241646.47 457187.816 -251960.44 -174352.02 426312.457  26105.122 -698834.28
                   672729.162 -24926.694 -637840.48 662767.176 -24926.692 -637840.48 662767.175 575.328396 -581.03217 5.70377089
                    -.2121E-3 -.20646E-3 .476748E-3        0.0   297.0829   3.661192   2.770406   17.02434   12.88224    .215056
                         420.    .047657     .02718    .258339    .242926   1.021268    .012438    .005406    1325.28   26.50559
                          0.0        0.0        0.0        0.0        0.0
 113500     .1135  -205088.98 -229739.14 434828.118 -205088.98 -229739.14 434828.118 -205088.98 -229739.14 434828.118        0.0
                          0.0        0.0 -150463.29 -296531.53 446994.827 -194607.89 -233465.35  428073.24 146068.238 -743526.36
                   597458.121 24650.1608 -664567.26 639917.097  24650.163 -664567.26 639917.095 593.588651 -507.11648 -86.472175
                   -.20394E-3   -.233E-3 .407755E-3        0.0   297.0829   3.661192   2.770406   17.02434   12.88224    .215056
                         420.    .047657     .02718    .258339    .242926   1.021268    .012438    .005406    1325.28   26.50559
                          0.0        0.0        0.0        0.0        0.0
 114000      .114  -123396.86 -298010.23 421407.088 -123396.86 -298010.23 421407.088 -123396.86 -298010.23 421407.088        0.0
                          0.0        0.0 -97230.682  -333429.3 430659.978 -132463.44   -286830.  419293.44 236198.614 -764089.27
                    527890.66 174613.371 -719417.32 544803.947 174613.372 -719417.32 544803.946 349.466967 -212.07403 -137.39293
                   -.13495E-3 -.31463E-3 .434816E-3        0.0   297.0829   3.661192   2.770406   17.02434   12.88224    .215056
                         420.    .047657     .02718    .258339    .242926   1.021268    .012438    .005406    1325.28   26.50559
                          0.0        0.0        0.0        0.0        0.0
 114500     .1145  -75797.323 -329191.82 404989.144 -75797.323 -329191.82 404989.144 -75797.322 -329191.82 404989.144        0.0
                          0.0        0.0 -42346.917 -369257.65 411604.564 -67057.308 -333131.94 400189.244  326910.73 -780862.21
                   453951.481 253394.498 -734180.96 480786.467 253394.499 -734180.96 480786.466 294.391359 -123.28201 -171.10935
                   -.70392E-4 -.32711E-3 .411987E-3        0.0   297.0829   3.661192   2.770406   17.02434   12.88224    .215056
                         420.    .047657     .02718    .258339    .242926   1.021268    .012438    .005406    1325.28   26.50559
                          0.0        0.0        0.0        0.0        0.0
 115000      .115  -30020.765 -348115.16 378135.921 -30020.765 -348115.16 378135.921 -30020.764 -348115.16  378135.92        0.0
                          0.0        0.0 -34979.444 -352365.09 387344.534 .127058E-4 -371231.06  371231.06 317385.646 -739709.62
                   422323.978 318094.391 -726251.08 408156.685 318094.392 -726251.08 408156.684 324.163139 -114.60828 -209.55486
                   -.31325E-4 -.38277E-3  .38144E-3        0.0   297.0829   3.661192   2.770406   17.02434   12.88224    .215056
                         420.    .047657     .02718    .258339    .242926   1.021268    .012438    .005406    1325.28   26.50559
                          0.0        0.0        0.0        0.0        0.0
 115500     .1155   85813.468 -423476.49 337663.026  85813.468 -423476.49 337663.026 85813.4688 -423476.49 337663.025        0.0
                          0.0        0.0 24516.6803 -381645.39 357128.707 67057.3081 -400189.24 333131.936 406162.068 -738774.09
                   332612.027 509289.962 -761139.52 251849.558 509289.963 -761139.52 251849.556 380.666351  -109.2332 -271.43315
                   .851199E-4 -.41825E-3 .333279E-3        0.0   297.0829   3.661192   2.770406   17.02434   12.88224    .215056
                         420.    .047657     .02718    .258339    .242926   1.021268    .012438    .005406    1325.28   26.50559
                          0.0        0.0        0.0        0.0        0.0
 116000      .116  112191.286 -409018.74 296827.453 112191.286 -409018.74 296827.453 112191.287 -409018.74 296827.452        0.0
                          0.0        0.0   78338.17 -398073.59 319735.417 132463.443 -419293.44 286829.997 476411.757   -717809.
                   241397.247 521210.024 -705846.19 184636.167 521210.026 -705846.19 184636.166 560.976734 -222.69143 -338.28531
                   .118851E-3  -.4106E-3 .335544E-3        0.0   297.0829   3.661192   2.770406   17.02434   12.88224    .215056
                         420.    .047657     .02718    .258339    .242926   1.021268    .012438    .005406    1325.28   26.50559
                          0.0        0.0        0.0        0.0        0.0
 116500     .1165  193111.977 -431978.62 238866.647 193111.977 -431978.62 238866.647 193111.979 -431978.62 238866.646        0.0
                          0.0        0.0 173901.992 -434473.52 260571.533 194607.888 -428073.24 233465.353 608375.517 -695045.06
                   86669.5403 625090.602 -670845.27 45754.6699 625090.604 -670845.27 45754.6678 643.990455  -215.4915 -428.49896
                   .204022E-3 -.46422E-3 .231028E-3        0.0   297.0829   3.661192   2.770406   17.02434   12.88224    .215056
                         420.    .047657     .02718    .258339    .242926   1.021268    .012438    .005406    1325.28   26.50559
                          0.0        0.0        0.0        0.0        0.0
 117000      .117  275758.616 -454379.75 178621.138 275758.616 -454379.75 178621.138 275758.617 -454379.75 178621.137        0.0
                          0.0        0.0 268422.782 -467525.61 199102.828 251960.441 -426312.46 174352.016 735948.393 -666628.44
                   -69319.955 730138.369 -633000.89 -97137.478  730138.37 -633000.89  -97137.48 650.169174 -137.14941 -513.01976
                   .271877E-3 -.46151E-3 .189513E-3        0.0   297.0829   3.661192   2.770406   17.02434   12.88224    .215056
                         420.    .047657     .02718    .258339    .242926   1.021268    .012438    .005406    1325.28   26.50559
                          0.0        0.0        0.0        0.0        0.0
 117500     .1175  287470.454 -404569.94 117099.485 287470.454 -404569.94 117099.485 287470.455 -404569.94 117099.484        0.0
                          0.0        0.0 354312.071 -480032.07 125720.004 303108.891 -414054.45 110945.554 834344.145 -605752.08
                   -228592.07 692040.393 -521669.42 -170370.97 692040.394 -521669.42 -170370.97 491.381353 53.6006915 -544.98205
                   .281545E-3 -.42327E-3 .112504E-3        0.0   297.0829   3.661192   2.770406   17.02434   12.88224    .215056
                         420.    .047657     .02718    .258339    .242926   1.021268    .012438    .005406    1325.28   26.50559
                          0.0        0.0        0.0        0.0        0.0
 118000      .118  372430.418 -417888.61 45458.1907 372430.418 -417888.61 45458.1907 372430.419 -417888.61 45458.1896        0.0
                          0.0        0.0 430336.202 -472209.46 41873.2586 346793.795 -391601.04 44807.2447 902545.663 -514082.72
                   -388462.94 790319.027  -463346.8 -326972.23 790319.027  -463346.8 -326972.23 330.357251 238.638638 -568.99589
                   .362992E-3 -.41224E-3 .492223E-4        0.0   297.0829   3.661192   2.770406   17.02434   12.88224    .215056
                         420.    .047657     .02718    .258339    .242926   1.021268    .012438    .005406    1325.28   26.50559
                          0.0        0.0        0.0        0.0        0.0
 118500     .1185   396183.24  -372524.3 -23658.945  396183.24  -372524.3 -23658.945 396183.241  -372524.3 -23658.946        0.0
                          0.0        0.0 424598.195 -396330.09 -28268.105 381939.485 -359505.12 -22434.368 820928.286 -368061.99
                    -452866.3 768707.536 -348865.35 -419842.18 768707.536 -348865.35 -419842.19 97.4409866 442.272196 -539.71318
                    .38108E-3 -.36381E-3 -.24538E-4        0.0   297.0829   3.661192   2.770406   17.02434   12.88224    .215056
                         420.    .047657     .02718    .258339    .242926   1.021268    .012438    .005406    1325.28   26.50559
                          0.0        0.0        0.0        0.0        0.0
 119000      .119  399757.195 -307969.54  -91787.65 399757.195 -307969.54  -91787.65 399757.194 -307969.54 -91787.651        0.0
                          0.0        0.0 442244.858 -335953.69 -106291.17 407680.557 -318556.98 -89123.572 778198.547 -229662.52
                   -548536.03 707726.739 -216181.89 -491544.84 707726.737 -216181.89 -491544.85 -78.114373 560.719201 -482.60483
                   .409907E-3 -.32492E-3  -.8481E-4        0.0   297.0829   3.661192   2.770406   17.02434   12.88224    .215056
                         420.    .047657     .02718    .258339    .242926   1.021268    .012438    .005406    1325.28   26.50559
                          0.0        0.0        0.0        0.0        0.0
 119500     .1195   439773.34 -283018.41 -156754.93  439773.34 -283018.41 -156754.93 439773.339 -283018.41 -156754.93        0.0
                          0.0        0.0 414428.963 -247861.09 -166567.87  423383.18 -269764.92 -153618.26 662290.052 -81293.214
                   -580996.84 722791.752 -126263.48 -596528.27 722791.751 -126263.48 -596528.27 -18.500796  470.36966 -451.86887
                   .459925E-3 -.30523E-3 -.15457E-3        0.0   297.0829   3.661192   2.770406   17.02434   12.88224    .215056
                         420.    .047657     .02718    .258339    .242926   1.021268    .012438    .005406    1325.28   26.50559
                          0.0        0.0        0.0        0.0        0.0
  % % % % % %   Suspended simulation;  plot data space exhausted;  SPY SPACE is required.   LIMBUF =  840000.
  % % % % % %   Suspended simulation;  plot data space exhausted;  SPY SPACE is required.   LIMBUF =  840000.
  +++  Time-sharing disabled.   Send  user-keyed interrupt to silence alarm.
   Current values.  INDBUF  INDBEG  LIMBUF  MFLUSH  NUMDCD  KCARD1  KCARD2
                    839994      50  840000    1007     230       1     231
Plot timespan now in memory (in sec) = 1.04985997E-01   1.19985000E-01
   ++++  Begin plot-data copy from memory to disk.   MFLUSH, INDBUF, N4, Tbeg,  Tend = 1008  839994       1  -1.00000E+00
1.00000E+19
 120000       .12  417834.208 -204514.16 -213320.05 417834.208 -204514.16 -213320.05 417834.207 -204514.16 -213320.05        0.0
                          0.0        0.0 389590.172 -173023.42 -216566.75 428660.705 -214330.35 -214330.35 562613.596 43543.3223
                   -606156.92 622348.367 8805.88842 -631154.26 622348.366 8805.89017 -631154.26 -86.546324 481.257101 -394.71078
                    .43831E-3 -.20229E-3 -.20692E-3        0.0   297.0829   3.661192   2.770406   17.02434   12.88224    .215056
                         420.    .047657     .02718    .258339    .242926   1.021268    .012438    .005406    1325.28   26.50559
                          0.0        0.0        0.0        0.0        0.0

Extrema of output variables follow.   Order and column positioning are the same as for the preceding time-step loop output.
Variable maxima :  490130.903 467998.029 451210.428 490130.903 467998.029 451210.428 490130.902  467998.03 451210.428        0.0
                          0.0        0.0 633994.023 595732.693 496629.889 428660.705 428660.703 428660.703 .1255678E7 907784.481
                   980753.635 936102.266 819277.615 819241.461 936102.268 819277.616 819241.462 1238.44021 1151.44992 698.494896
                   .540415E-3 .516276E-3 .501573E-3        0.0   297.0829   3.661192   2.770406   17.02434   12.88224    .215056
                         420.    .047657     .02718    .258339    .242926   1.021268    .012438    .005406    1325.28   26.50559
                          0.0        0.0        0.0        0.0        0.0
Times of maxima :     .079843    .066728    .073506    .079843    .066728    .073506    .079843    .066728    .073506        0.0
                          0.0        0.0    .057997    .067592    .073045        0.0    .006667    .113333    .057987    .064189
                      .072656    .057158    .085031    .072065    .057158    .085031    .072065    .056946    .063129    .067767
                      .079859    .085941    .073501        0.0        0.0        0.0        0.0        0.0        0.0        0.0
                          0.0        0.0        0.0        0.0        0.0        0.0        0.0        0.0        0.0        0.0
                          0.0        0.0        0.0        0.0        0.0
Variable minima :  -476142.59 -544057.26 -449590.33 -476142.59 -544057.26 -449590.33 -508409.76 -544057.26 -449590.33        0.0
                          0.0        0.0 -618650.23 -624176.22 -493103.48 -428660.71  -428660.7  -428660.7 -.118372E7 -929844.75
                   -.107798E7 -878298.81 -803664.89 -840525.08 -886096.51 -803664.89 -840525.08 -1296.6174 -1046.2358 -745.67845
                   -.51696E-3 -.63281E-3 -.50166E-3        0.0   297.0829   3.661192   2.770406   17.02434   12.88224    .215056
                         420.    .047657     .02718    .258339    .242926   1.021268    .012438    .005406    1325.28   26.50559
                          0.0        0.0        0.0        0.0        0.0
Times of minima :     .090115    .057129    .063049    .090115    .057129    .063049    .049565    .057129    .063049        0.0
                          0.0        0.0    .068494    .056768    .062566        .01    .016667    .103333    .068448    .074623
                       .06214    .067945    .074595    .061453    .049562    .074595    .061453    .063184    .069491    .057087
                      .090823    .057137    .063017        0.0        0.0        0.0        0.0        0.0        0.0        0.0
                          0.0        0.0        0.0        0.0        0.0        0.0        0.0        0.0        0.0        0.0
                          0.0        0.0        0.0        0.0        0.0

Blank card terminating all plot cards.            |BLANK PLOT

Memory storage figures for the preceding, now-completed data case.  -------------------------------  Present   Program
A value of  "-9999"  indicates that no figure is available.         28-Feb-22  20:53:22              figure     limit  (name)
     Size List 1.   Number of electric network nodes.                                                   37      6000  (LBUS)
     Size List 2.   Number of electric network branches.                                                39     10000  (LBRNCH)
     Size List 3.   Number of data values in R, L, C tables.                                            45    192000  (LDATA)
     Size List 4.   Number of electric network sources.                                                  3       900  (LEXCT)
     Size List 5.   Storage for [Y] and triangularized [Y].   No. times =    3     Factors =    66     189    420000  (LYMAT)
     Size List 6.   Number of entries in switch table.                  No. flops = 18                  21      1200  (LSWTCH)
     Size List 7.   Number of distinct ALPHANUMERIC data names plus program SPY variables.              25     15000  (LSIZE7)
     Size List 8.   History points of distributed lines.                                              3093    120000  (LPAST)
     Size List 9.   Number of nonlinear elements.                                                        0      2250  (LNONL)
     Size List 10.  Points of nonlinear characteristics.                                                 0      3800  (LCHAR)
     Size List 11.  Number of Type-59 S.M. outputs.                                                      0       720  (LSMOUT)
     Size List 12.  Total number of EMTP output variables.                                              55      2000  (LSIZ12)
     Size List 13.  Working space for batch/SPY plotting.                                            -9999     72800  (LSIZ13)
     Size List 14.  S.M./U.M. connections to TACS.                                                   -9999       510  (LBSTAC)
     Size List 15.  Character storage in bytes for MODELS.                                            3298     90000  (LCTACS)
     Size List 16.  Total number of Type-59 S.M. masses.                                                 0       800  (LIMASS)
     Size List 17.  Number of Type-59 Synchronous machines.                                              0        90  (LSYN)
     Size List 18.  Branch and switch power/energy outputs.                                              0       254  (MAXPE)
     Size List 19.  Total floating-point TACS table space.                                              23    120000  (LTACST)
     Size List 20.  Non-copied recursive convolution data.                                               0    100000  (LFSEM)
     Size List 21.  Total modal/phase [T] matrix storage.                                                9      3000  (LFD)
     Size List 22.  Total recursive convolution history.                                                 0     15000  (LHIST)
     Size List 23.  Giant vectors for renumbering, phasors;  also extrema accumulation.                  93    192000  (LSIZ23)
     Size List 24.  Peak phases of compensation for data.                                                0       120  (LCOMP)
     Size List 25.  Total table space for all U.M usage.                                             -9999     45000  (LSPCUM)
     Size List 26.  Square of max number of coupled phases.                                              9    260000  (LSIZ26)
     Size List 27.  Maximum number of MODELS top variables.                                             44       600  (LSIZ27)
     Size List 28.  MODELS.  Total work space is divided into INTEGER and REAL.  1st, REAL:           1780    210000  (LRTACS)
                             Second  and last,  statistics for INTEGER work space.                    6838         0  (LITACS)
     Size List 29.  RAM disk used by "TAPSAV" table saving (limit is "LABCOM" size LTLABL).          -9999       600  (LSIZ29)
     Size List 30.  Taku Noda frequency-dependent circuits.                                              0        19  (LSIZ30)
Timing figures characterizing central processor (CP) solution speed.  ----------------------------   CP sec  Wait sec  Real sec
     Data input time (through blank card ending branches) ....                                       0.031     0.000     0.031
     Node renumbering and phasor solution  ....                                                      0.000     0.000     0.000
     After phasor solution, but before time-step loop  ....                                          0.000     0.000     0.000
     Integration of equations (time-step loop)  ....                                                 0.938     0.000     0.938
     Plotting or STATISTICS termination overlays ....                                                0.000     0.000     0.000
                                                                                                    ---------------------------
                                                                                          Totals      0.969     0.000     0.969

