   ---   236   cards of disk file read into card cache cells  1   onward.
 Comment card is ignored.      |C   LBUS  LBRNCH   LDATA   LEXCT   LYMAT  LSWTCH
 Limit CIDEAL cards =   200    |CARDS        200 { Limit of CIDEAL will be 2 mor
 1st card (Lists  1-10).       |    6000   10000  192000     900  420000    120
 Comment card is ignored.      |C LSMOUT  LSIZ12  LSIZ13  LBSTAC  LCTACS  LIMASS
 2nd card (Lists 11-20).       |     720    2000   72800     510   90000     80
 Comment card is ignored.      |C    LFD   LHIST  LSIZ23   NCOMP  LSPCUM  LSIZ26
 3rd card (Lists 21-30).       |    3000   15000  192000     120   45000  26000
 4th card (Lists 31-32).       |     200     300     { Optional card for Lists
 Comment card is ignored.      |C  LWORK  LMARTI
 Supplemental offsets.         |  840000     742
 <===> Done with  "/"-card sorting by data class.    Remember that the source file appears different from interpreted input data.
Alternative Transients Program (ATP),  GNU Linux or DOS.  All rights reserved by Can/Am user group of Portland, Oregon, USA.
 Date (dd-mth-yy) and time of day (hh.mm.ss) = 28-Feb-22  19:15:16   Name of disk plot file is  tp\bdfinalisima\energizacion526.pl4
Consult the 860-page ATP Rule Book of the Can/Am EMTP User Group in Portland,  Oregon, USA.  Source code date is 12 August 2008.
Total size of LABCOM tables = 10913436 INTEGER words.  31 VARDIM  List Sizes follow:  6002  10K  192K  900  420K  1200  15K
  120K  2250  3800  720  2K  72800  510  90K  800  90  254  120K  100K  3K  15K  192K  120  45K  260K  600  210K  1100  60  200
--------------------------------------------------+--------------------------------------------------------------------------------
Descriptive interpretation of input data cards.   |  Input data card images are shown below, all 80 columns, character by character
                                                  0         1         2         3         4         5         6         7         8
                                                  012345678901234567890123456789012345678901234567890123456789012345678901234567890
--------------------------------------------------+--------------------------------------------------------------------------------
Comment card.   NUMDCD = 1.                       |C data:D:\ATP\BDFINALISIMA\ENERGIZACION526.ATP
Marker card preceding new EMTP data case.         |BEGIN NEW DATA CASE
Comment card.   NUMDCD = 3.                       |C --------------------------------------------------------
Comment card.   NUMDCD = 4.                       |C Generated by ATPDRAW  febrero, lunes 28, 2022
Comment card.   NUMDCD = 5.                       |C A Bonneville Power Administration program
Comment card.   NUMDCD = 6.                       |C by H. K. Høidalen at SEfAS/NTNU - NORWAY 1994-2016
Comment card.   NUMDCD = 7.                       |C --------------------------------------------------------
Comment card.   NUMDCD = 8.                       |C  dT  >< Tmax >< Xopt >< Copt ><Epsiln>
Misc. data.     1.000E-06   1.200E-01   5.000E+01 |   1.E-6     .12     50.
Misc. data.    500    1  0  1  1  0  0  0  0  0   |     500       1       0       1       1       0       0       0       0
  ///  Warning.  Nonzero XOPT or COPT differs from the power frequency of  6.00000000E+01  Hz.   Did the user really want this?
No TACS data,  but MODELS data begins (next).     |MODELS
      Another ordinary MODELS data card.          |OUTPUT
      Another ordinary MODELS data card.          |  AnVol
      Another ordinary MODELS data card.          |  LONG
      Another ordinary MODELS data card.          |  R0F
      Another ordinary MODELS data card.          |  R1F
      Another ordinary MODELS data card.          |  X0F
      Another ordinary MODELS data card.          |  X1F
      Another ordinary MODELS data card.          |  RDIVX
      Another ordinary MODELS data card.          |  RINSER
      Another ordinary MODELS data card.          |  CLOSE1
      Another ordinary MODELS data card.          |  RPpos
      Another ordinary MODELS data card.          |  RPcero
      Another ordinary MODELS data card.          |  LPpos
      Another ordinary MODELS data card.          |  LPcero
      Another ordinary MODELS data card.          |  CPpos
      Another ordinary MODELS data card.          |  CPcero
      Another ordinary MODELS data card.          |  Xp
      Another ordinary MODELS data card.          |  CR
      Another ordinary MODELS data card.          |  SIMET
      Another ordinary MODELS data card.          |  ENC1
      Another ordinary MODELS data card.          |  ENC2
      Another ordinary MODELS data card.          |  ENC1AS
      Another ordinary MODELS data card.          |  ENC2AS
      Another ordinary MODELS data card.          |MODEL DEFAULT
      Another ordinary MODELS data card.          |DATA AnVol,LONG,R0F,R1F,X0F,X1F,RDIVX,RINSER,CLOSE1,RPpos,RPcero,LPpos,LPcero
      Another ordinary MODELS data card.          |OUTPUT o1,o2,o3, o4, o5, o6, o7, o8, o9, o10, o11, o12, o13
      Another ordinary MODELS data card.          |VAR o1,o2,o3, o4, o5, o6, o7, o8, o9, o10, o11, o12, o13
      Another ordinary MODELS data card.          |INIT
      Another ordinary MODELS data card.          |  o1:=AnVol
      Another ordinary MODELS data card.          |  o2:=LONG
      Another ordinary MODELS data card.          |  o3:=R0F
      Another ordinary MODELS data card.          |  o4:=R1F
      Another ordinary MODELS data card.          |  o5:=X0F
      Another ordinary MODELS data card.          |  O6:=X1F
      Another ordinary MODELS data card.          |  o7:=RDIVX
      Another ordinary MODELS data card.          |  o8:=RINSER
      Another ordinary MODELS data card.          |  o9:=CLOSE1
      Another ordinary MODELS data card.          |  o10:=RPpos
      Another ordinary MODELS data card.          |  o11:=RPcero
      Another ordinary MODELS data card.          |  o12:=LPpos
      Another ordinary MODELS data card.          |  o13:=LPcero
      Another ordinary MODELS data card.          |
      Another ordinary MODELS data card.          |ENDINIT
      Another ordinary MODELS data card.          |EXEC
      Another ordinary MODELS data card.          |ENDEXEC
      Another ordinary MODELS data card.          |ENDMODEL
      Another ordinary MODELS data card.          |MODEL DEFAULT1
      Another ordinary MODELS data card.          |DATA CPpos,CPcero,Xp,CR,SIMET,ENC1,ENC2,ENC1AS,ENC2AS
      Another ordinary MODELS data card.          |OUTPUT o1, o2, o3, o4, o5, o6, o7, o8, o9
      Another ordinary MODELS data card.          |VAR o1, o2, o3, o4, o5, o6, o7, o8, o9
      Another ordinary MODELS data card.          |INIT
      Another ordinary MODELS data card.          |  o1:=CPpos
      Another ordinary MODELS data card.          |  o2:=CPcero
      Another ordinary MODELS data card.          |  o3:=Xp
      Another ordinary MODELS data card.          |  o4:=CR
      Another ordinary MODELS data card.          |  o5:=SIMET
      Another ordinary MODELS data card.          |  o6:=ENC1
      Another ordinary MODELS data card.          |  o7:=ENC2
      Another ordinary MODELS data card.          |  o8:=ENC1AS
      Another ordinary MODELS data card.          |  o9:=ENC2AS
      Another ordinary MODELS data card.          |
      Another ordinary MODELS data card.          |ENDINIT
      Another ordinary MODELS data card.          |EXEC
      Another ordinary MODELS data card.          |ENDEXEC
      Another ordinary MODELS data card.          |ENDMODEL
      Another ordinary MODELS data card.          |USE DEFAULT AS DEFAULT
      Another ordinary MODELS data card.          |DATA
      Another ordinary MODELS data card.          |  AnVol:=      0.0
      Another ordinary MODELS data card.          |  LONG:= 38.79507
      Another ordinary MODELS data card.          |  R0F:= 1.075331
      Another ordinary MODELS data card.          |  R1F:= 1.009316
      Another ordinary MODELS data card.          |  X0F:= 9.628623
      Another ordinary MODELS data card.          |  X1F:= 9.037524
      Another ordinary MODELS data card.          |  RDIVX:= 0.111681
      Another ordinary MODELS data card.          |  RINSER:=     360.
      Another ordinary MODELS data card.          |  CLOSE1:= 0.046681
      Another ordinary MODELS data card.          |  RPpos:= 0.024179
      Another ordinary MODELS data card.          |  RPcero:= 0.317703
      Another ordinary MODELS data card.          |  LPpos:= 0.330198
      Another ordinary MODELS data card.          |  LPcero:= 1.260348
      Another ordinary MODELS data card.          |OUTPUT
      Another ordinary MODELS data card.          |  AnVol:=o1
      Another ordinary MODELS data card.          |  LONG:=o2
      Another ordinary MODELS data card.          |  R0F:=o3
      Another ordinary MODELS data card.          |  R1F:=o4
      Another ordinary MODELS data card.          |  X0F:=o5
      Another ordinary MODELS data card.          |  X1F:=o6
      Another ordinary MODELS data card.          |  RDIVX:=o7
      Another ordinary MODELS data card.          |  RINSER:=o8
      Another ordinary MODELS data card.          |  CLOSE1:=o9
      Another ordinary MODELS data card.          |  RPpos:=o10
      Another ordinary MODELS data card.          |  RPcero:=o11
      Another ordinary MODELS data card.          |  LPpos:=o12
      Another ordinary MODELS data card.          |  LPcero:=o13
      Another ordinary MODELS data card.          |ENDUSE
      Another ordinary MODELS data card.          |USE DEFAULT1 AS DEF
      Another ordinary MODELS data card.          |DATA
      Another ordinary MODELS data card.          |  CPpos:= 0.011579
      Another ordinary MODELS data card.          |  CPcero:= 0.007506
      Another ordinary MODELS data card.          |  Xp:= 10901.92
      Another ordinary MODELS data card.          |  CR:= 218.0383
      Another ordinary MODELS data card.          |  SIMET:=       1.
      Another ordinary MODELS data card.          |  ENC1:=       1.
      Another ordinary MODELS data card.          |  ENC2:=      0.0
      Another ordinary MODELS data card.          |  ENC1AS:=      0.0
      Another ordinary MODELS data card.          |  ENC2AS:=      0.0
      Another ordinary MODELS data card.          |OUTPUT
      Another ordinary MODELS data card.          |  CPpos:=o1
      Another ordinary MODELS data card.          |  CPcero:=o2
      Another ordinary MODELS data card.          |  Xp:=o3
      Another ordinary MODELS data card.          |  CR:=o4
      Another ordinary MODELS data card.          |  SIMET:=o5
      Another ordinary MODELS data card.          |  ENC1:=o6
      Another ordinary MODELS data card.          |  ENC2:=o7
      Another ordinary MODELS data card.          |  ENC1AS:=o8
      Another ordinary MODELS data card.          |  ENC2AS:=o9
      Another ordinary MODELS data card.          |ENDUSE
      Another ordinary MODELS data card.          |RECORD
      Another ordinary MODELS data card.          |  DEFAULT.o1 AS AnVOL
      Another ordinary MODELS data card.          |  DEFAULT.o2 AS LONG
      Another ordinary MODELS data card.          |  DEFAULT.o3 AS R0F
      Another ordinary MODELS data card.          |  DEFAULT.o4 AS R1F
      Another ordinary MODELS data card.          |  DEFAULT.o5 AS X0F
      Another ordinary MODELS data card.          |  DEFAULT.o6 AS X1F
      Another ordinary MODELS data card.          |  DEFAULT.o7 AS RDIVX
      Another ordinary MODELS data card.          |  DEFAULT.o8 AS RINSER
      Another ordinary MODELS data card.          |  DEFAULT.o9 AS CLOSE1
      Another ordinary MODELS data card.          |  DEFAULT.o10 AS RPpos
      Another ordinary MODELS data card.          |  DEFAULT.o11 AS RPcero
      Another ordinary MODELS data card.          |  DEFAULT.o12 AS LPpos
      Another ordinary MODELS data card.          |  DEFAULT.o13 AS LPcero
      Another ordinary MODELS data card.          |  DEF.o1 AS CPpos
      Another ordinary MODELS data card.          |  DEF.o2 AS CPcero
      Another ordinary MODELS data card.          |  DEF.o3 AS Xp
      Another ordinary MODELS data card.          |  DEF.o4 AS CR
      Another ordinary MODELS data card.          |  DEF.o5 AS SIMET
      Another ordinary MODELS data card.          |  DEF.o6 AS ENC1
      Another ordinary MODELS data card.          |  DEF.o7 AS ENC2
      Another ordinary MODELS data card.          |  DEF.o8 AS ENC1AS
      Another ordinary MODELS data card.          |  DEF.o9 AS ENC2AS
Termination of data for Laurent Dube`s MODELS.    |ENDMODELS
Comment card.   NUMDCD = 153.                     |C        1         2         3         4         5         6         7         8
Comment card.   NUMDCD = 154.                     |C 345678901234567890123456789012345678901234567890123456789012345678901234567890
Optional blank card follows last of MODELS data.  |BLANK MODELS
Comment card.   NUMDCD = 156.                     |C < n1 >< n2 ><ref1><ref2>< R  >< L  >< C  >
Comment card.   NUMDCD = 157.                     |C < n1 >< n2 ><ref1><ref2>< R  >< A  >< B  ><Leng><><>0
1st of coupled R-L.   1.07530E+00  3.06489E-02    |51IFUENASB1A              1.0753 9.628623375
2nd coil. 1.009E+00 2.877E-02 0.000E+00 0.000E+00 |52IFUENBSB1B              1.00939.0375239213
Zca, Zcc= 2.200E-02 6.272E-04 1.031E+00 2.939E-02 |53IFUENCSB1C
Series R-L-C.   1.000E+09  0.000E+00  0.000E+00   |  SB1A                      1.E9                                               0
Series R-L-C.   1.000E+09  0.000E+00  0.000E+00   |  SB1B                      1.E9                                               0
Series R-L-C.   1.000E+09  0.000E+00  0.000E+00   |  SB1C                      1.E9                                               0
Series R-L-C.   1.090E+02  1.735E+01  0.000E+00   |  RSNSHA                  109.02 5451.                                         0
Series R-L-C.   1.090E+02  1.735E+01  0.000E+00   |  RSNSHB                  109.02 5451.                                         0
Series R-L-C.   1.090E+02  1.735E+01  0.000E+00   |  RSNSHC                  109.02 5451.                                         0
Series R-L-C.   1.000E+09  0.000E+00  0.000E+00   |  RSNNHA                    1.E9                                               0
Series R-L-C.   1.000E+09  0.000E+00  0.000E+00   |  RSNNHB                    1.E9                                               0
Series R-L-C.   1.000E+09  0.000E+00  0.000E+00   |  RSNNHC                    1.E9                                               0
Series R-L-C.   1.000E+09  0.000E+00  0.000E+00   |  SE2A                      1.E9                                               0
Series R-L-C.   1.000E+09  0.000E+00  0.000E+00   |  SE2B                      1.E9                                               0
Series R-L-C.   1.000E+09  0.000E+00  0.000E+00   |  SE2C                      1.E9                                               0
Series R-L-C.   2.500E+02  0.000E+00  3.000E-10   |  X0001B                    250.       .0003                                   0
Series R-L-C.   2.500E+02  0.000E+00  3.000E-10   |  X0002B                    250.       .0003                                   0
Series R-L-C.   1.000E-06  0.000E+00  0.000E+00   |  X0001ALN1A               1.E-6                                               0
Series R-L-C.   1.000E-06  0.000E+00  0.000E+00   |  SB1A  X0002A             1.E-6                                               0
Series R-L-C.   1.000E-06  0.000E+00  0.000E+00   |  X0001BLN1B               1.E-6                                               0
Series R-L-C.   1.000E-06  0.000E+00  0.000E+00   |  SB1B  X0002B             1.E-6                                               0
Series R-L-C.   1.000E-06  0.000E+00  0.000E+00   |  X0001CLN1C               1.E-6                                               0
Series R-L-C.   1.000E-06  0.000E+00  0.000E+00   |  SB1C  X0002C             1.E-6                                               0
Series R-L-C.   3.600E+02  0.000E+00  0.000E+00   |  XX0005X0002A              360.                                               0
Series R-L-C.   3.600E+02  0.000E+00  0.000E+00   |  XX0003X0002B              360.                                               0
Series R-L-C.   3.600E+02  0.000E+00  0.000E+00   |  XX0004X0002C              360.                                               0
Series R-L-C.   2.500E+02  0.000E+00  3.000E-10   |  X0001A                    250.       .0003                                   0
Series R-L-C.   1.000E+06  0.000E+00  0.000E+00   |  X0001AX0002A              1.E6                                               0
Series R-L-C.   1.000E+06  0.000E+00  0.000E+00   |  X0001BX0002B              1.E6                                               0
Series R-L-C.   1.000E+06  0.000E+00  0.000E+00   |  X0001CX0002C              1.E6                                               0
Series R-L-C.   2.500E+02  0.000E+00  3.000E-10   |  X0002C                    250.       .0003                                   0
Series R-L-C.   2.500E+02  0.000E+00  3.000E-10   |  X0002A                    250.       .0003                                   0
Series R-L-C.   2.500E+02  0.000E+00  3.000E-10   |  X0001C                    250.       .0003                                   0
Series R-L-C.   1.250E+02  0.000E+00  6.000E-10   |  X0001AX0002A              125.       .0006                                   0
Series R-L-C.   1.250E+02  0.000E+00  6.000E-10   |  X0001BX0002B              125.       .0006                                   0
Series R-L-C.   1.250E+02  0.000E+00  6.000E-10   |  X0001CX0002C              125.       .0006                                   0
 3.177E-01 1.260E+00 7.510E-03 7.309E+02 2.129E-04|-1LN1A  VFF2A              .31771.2603.0075138.795 0 0                         0
 2.418E-02 3.302E-01 1.158E-02 3.013E+02 1.353E-04|-2LN1B  VFF2B             .02418 .3302.0115838.795 0 0                         0
3rd or later transposed distributed phase.        |-3LN1C  VFF2C                                                                  0
Blank card ending branches.  IBR, NTOT = 39  31   |BLANK BRANCH
Comment card.   NUMDCD = 198.                     |C < n 1>< n 2>< Tclose ><Top/Tde ><   Ie   ><Vf/CLOP ><  type  >
Switch.  -1.00E+00  1.00E+01  0.00E+00  0.00E+00  |  LN1A  COMPA        -1.       10.                                             0
Switch.  -1.00E+00  1.00E+01  0.00E+00  0.00E+00  |  LN1B  COMPB        -1.       10.                                             0
Switch.  -1.00E+00  1.00E+01  0.00E+00  0.00E+00  |  LN1C  COMPC        -1.       10.                                             0
Switch.  -1.00E+00  1.00E+01  0.00E+00  0.00E+00  |  VFF2A RSNNHA       -1.       10.                                             0
Switch.  -1.00E+00  1.00E+01  0.00E+00  0.00E+00  |  VFF2B RSNNHB       -1.       10.                                             0
Switch.  -1.00E+00  1.00E+01  0.00E+00  0.00E+00  |  VFF2C RSNNHC       -1.       10.                                             0
Switch.   2.00E+00 -1.00E+00  0.00E+00  0.00E+00  |  VFF2A SE2A          2.       -1.                                             0
Switch.   2.00E+00 -1.00E+00  0.00E+00  0.00E+00  |  VFF2B SE2B          2.       -1.                                             0
Switch.   2.00E+00 -1.00E+00  0.00E+00  0.00E+00  |  VFF2C SE2C          2.       -1.                                             0
Switch.   4.67E-02  1.00E+03  0.00E+00  0.00E+00  |  X0001BXX0003.046680634      1.E3                                             0
Switch.   4.67E-02  1.00E+03  0.00E+00  0.00E+00  |  X0001CXX0004.046680634      1.E3                                             0
Switch.   5.42E-02  1.00E+03  0.00E+00  0.00E+00  |  XX0005X0002A.054180634      1.E3                                             0
Switch.   5.42E-02  1.00E+03  0.00E+00  0.00E+00  |  XX0003X0002B.054180634      1.E3                                             0
Switch.   5.42E-02  1.00E+03  0.00E+00  0.00E+00  |  XX0004X0002C.054180634      1.E3                                             0
Switch.   4.67E-02  1.00E+03  0.00E+00  0.00E+00  |  X0001AXX0005.046680634      1.E3                                             0
Permanently-closed switch used for metering.      |  VFUENAIFUENA                                        MEASURING                1
Permanently-closed switch used for metering.      |  VFUENBIFUENB                                        MEASURING                1
Permanently-closed switch used for metering.      |  VFUENCIFUENC                                        MEASURING                1
Permanently-closed switch used for metering.      |  COMPA RSNSHA                                        MEASURING                1
Permanently-closed switch used for metering.      |  COMPB RSNSHB                                        MEASURING                1
Permanently-closed switch used for metering.      |  COMPC RSNSHC                                        MEASURING                1
Blank card ending switches.   KSWTCH = 21.        |BLANK SWITCH
Comment card.   NUMDCD = 221.                     |C < n 1><>< Ampl.  >< Freq.  ><Phase/T0><   A1   ><   T1   >< TSTART >< TSTOP  >
Source.   4.29E+05  5.00E+01  0.00E+00 -1.00E+00  |14VFUENA  428660.705       50.                                     -1.      100.
Source.   4.29E+05  5.00E+01 -1.20E+02 -1.00E+00  |14VFUENB  428660.705       50.     -120.                           -1.      100.
Source.   4.29E+05  5.00E+01 -2.40E+02 -1.00E+00  |14VFUENC  428660.705       50.     -240.                           -1.      100.
Blank card ends electric sources.  KCONST = 3     |BLANK SOURCE
Pi-equivalent branches of distributed circuits are added to the table of List Size 3 between indices  40   and  45.

Sinusoidal steady-state phasor solution, branch by branch.   All flows are away from a bus,  and the real part,  magnitude,  or  "P"
is printed above the imaginary part,  the angle,  or  "Q".   The first solution frequency  =  5.00000000E+01  Hertz.
  Bus K                        Phasor  node  voltage              Phasor  branch  current               Power flow       Power loss
             Bus M         Rectangular            Polar          Rectangular            Polar            P  and  Q        P  and  Q

 IFUENA                    428660.705       428660.705      .43181545603367  .44585884724893      92551.158906645  .10031942985429
                                  0.0              0.0      .11102037470921       14.4185472      -23795.03604611        0.8982852

            SB1A      428661.27251795  428661.27253675      -.4318154560337  .44585884724893      -92551.05858722
                      -4.014595377685       -0.0005366      -.1110203747092     -165.5814528      23795.934331303

 IFUENB                  -214330.3525       428660.705      -.1197612631802  .44585884724949       92551.15890671  .10031942985477
                      -371231.0601341     -120.0000000      -.4294733420273     -105.5814528      -23795.03604634        0.8982852

            SB1B      -214334.1130006  428661.27253675       .1197612631802  .44585884724949      -92551.05858728
                      -371229.5443214     -120.0005366      .42947334202734       74.4185472      23795.934331537

 IFUENC                  -214330.3525       428660.705      -.3120541928576  .44585884725261      92551.158907235  .10031942985587
                      371231.06013415      120.0000000      .31845296731766      134.4185472      -23795.03604698        0.8982852

            SB1C      -214327.1595174  428661.27253675      .31205419285758  .44585884725261      -92551.05858781
                       371233.5589168      119.9994634      -.3184529673177      -45.5814528      23795.934332175

 SB1A                 428661.27251795  428661.27253675      .42866127252E-3  .42866127254E-3      91.875243286414  91.875243286414
                      -4.014595377685       -0.0005366      -.4014595378E-8       -0.0005366      -.235581038E-19        0.0000000

            TERRA                 0.0              0.0      -.4286612725E-3  .42866127254E-3                  0.0
                                  0.0              0.0      .40145953777E-8      179.9994634                  0.0

 SB1B                 -214334.1130006  428661.27253675       -.214334113E-3  .42866127254E-3      91.875243286414  91.875243286414
                      -371229.5443214     -120.0005366      -.3712295443E-3     -120.0005366      .2324529458E-15        0.0000000

            TERRA                 0.0              0.0        .214334113E-3  .42866127254E-3                  0.0
                                  0.0              0.0      .37122954432E-3       59.9994634                  0.0

 SB1C                 -214327.1595174  428661.27253675      -.2143271595E-3  .42866127254E-3      91.875243286414  91.875243286414
                       371233.5589168      119.9994634      .37123355892E-3      119.9994634      -.313984949E-14        0.0000000

            TERRA                 0.0              0.0      .21432715952E-3  .42866127254E-3                  0.0
                                  0.0              0.0      -.3712335589E-3      -60.0005366                  0.0

 RSNSHA               -776.8138999116  10352.292504457      1.8901941803417  1.8987750260295      196.52744313729  196.52744313729
                      10323.106134432       94.3033978      .18031239579021        5.4491606      9826.3721568644     9826.3721569

            TERRA                 0.0              0.0      -1.890194180342  1.8987750260295                  0.0
                                  0.0              0.0      -.1803123957902     -174.5508394                  0.0

 RSNSHB               9328.4791083378  10352.292504458      -.7889419747993  1.8987750260297      196.52744313732  196.52744313732
                      -4488.812495879      -25.6966022      -1.727112376157     -114.5508394      9826.3721568662     9826.3721569

            TERRA                 0.0              0.0      .78894197479927  1.8987750260297                  0.0
                                  0.0              0.0      1.7271123761567       65.4491606                  0.0

 RSNSHC               -8551.665208426  10352.292504457      -1.101252205542  1.8987750260296       196.5274431373   196.5274431373
                      -5834.293638552     -145.6966022      1.5467999803665      125.4491606      9826.3721568652     9826.3721569

            TERRA                 0.0              0.0      1.1012522055423  1.8987750260296                  0.0
                                  0.0              0.0      -1.546799980366      -54.5508394                  0.0

 RSNNHA               -776.8321283437   10361.65775904      -.7768321283E-6  .10361657759E-4      .05368197575774  .05368197575774
                      10332.496472772       94.2996020      .10332496473E-4       94.2996020      .9275010772E-19        0.0000000

            TERRA                 0.0              0.0      .77683212834E-6  .10361657759E-4                  0.0
                                  0.0              0.0      -.1033249647E-4      -85.7003980                  0.0

 RSNNHB               9336.6204941068  10361.657759041      .93366204941E-5  .10361657759E-4      .05368197575775  .05368197575775
                      -4493.491878764      -25.7003980      -.4493491879E-5      -25.7003980      .1202786785E-18        0.0000000

            TERRA                 0.0              0.0      -.9336620494E-5  .10361657759E-4                  0.0
                                  0.0              0.0      .44934918788E-5      154.2996020                  0.0

 RSNNHC               -8559.788365763  10361.657759041      -.8559788366E-5  .10361657759E-4      .05368197575774  .05368197575774
                      -5839.004594007     -145.7003980      -.5839004594E-5     -145.7003980      .2920569602E-17        0.0000000

            TERRA                 0.0              0.0      .85597883658E-5  .10361657759E-4                  0.0
                                  0.0              0.0       .5839004594E-5       34.2996020                  0.0

 X0001B               9328.4791081828  10352.292504496      .42308132601E-3  .97568058213E-3      .11899407479E-3  .11899407479E-3
                      -4488.812496289      -25.6966022      .87917847444E-3       64.3020478      -5.050265387167       -5.0502654

            TERRA                 0.0              0.0       -.423081326E-3  .97568058213E-3                  0.0
                                  0.0              0.0      -.8791784744E-3     -115.6979522                  0.0

 X0002B               -214334.1130004  428661.27253632       .0349870842942  .04040037312914      .20402376862173  .20402376862173
                       -371229.544321     -120.0005366      -.0202013386082      -30.0018866      -8659.037675837    -8659.0376758

            TERRA                 0.0              0.0      -.0349870842942  .04040037312914                  0.0
                                  0.0              0.0      .02020133860823      149.9981134                  0.0

 X0001A               -776.8138994792  10352.292504495      .43235957036813  .43810081854074      196.95526294861  .95966163599E-7
                      10323.106134502       94.3033978      .07069320417941        9.2860108      2259.1045983917              0.0

            LN1A      -776.8138999116  10352.292504457      -.4323595703681  .43810081854074      -196.9552628526
                      10323.106134432       94.3033978      -.0706932041794     -170.7139892      -2259.104598392

 SB1A                 428661.27251795  428661.27253675      .43137697502971  .44543419162137       92457.07867464  .99205813342E-7
                      -4.014595377685       -0.0005366      .11102037866806       14.4325918      -23795.93429964        0.0000000

            X0002A    428661.27251752  428661.27253632      -.4313769750297  .44543419162137      -92457.07867454
                      -4.014595488705       -0.0005366      -.1110203786681     -165.5674082      23795.934299642

 X0001B               9328.4791081828  10352.292504496      -.1549578882987  .43810094068875      196.95437732553  .95966217195E-7
                      -4488.812496289      -25.6966022      -.4097810233361     -110.7140131      2259.1053102572        0.0000000

            LN1B      9328.4791083378  10352.292504458      .15495788829867  .43810094068875      -196.9543772296
                      -4488.812495879      -25.6966022      .40978102333611       69.2859869      -2259.105310257

 SB1B                 -214334.1130006  428661.27253675      -.1195294316858  .44544359495638      92458.192427415  .99209991333E-7
                      -371229.5443214     -120.0005366      -.4291068762541     -105.5653905      -23799.69262332        0.0000000

            X0002B    -214334.1130004  428661.27253632      .11952943168581  .44544359495638      -92458.19242732
                       -371229.544321     -120.0005366      .42910687625408       74.4346095       23799.69262332

 X0001C               -8551.665208703  10352.292504496      -.2774031599984  .43810095352692      196.96317615007  .95966222802E-7
                      -5834.293638213     -145.6966022        .339086909662      129.2862099      2259.1046098409              0.0

            LN1C      -8551.665208426  10352.292504457      .27740315999836  .43810095352692      -196.9631760541
                      -5834.293638552     -145.6966022       -.339086909662      -50.7137901      -2259.104609841

 SB1C                 -214327.1595174  428661.27253675      -.3118475433439  .44542403138778      92453.495687684  .99201287185E-7
                       371233.5589168      119.9994634      .31804665923119      134.4361407        -23801.118144              0.0

            X0002C    -214327.1595171  428661.27253632       .3118475433439  .44542403138778      -92453.49568758
                      371233.55891648      119.9994634      -.3180466592312      -45.5638593      23801.118144001

 XX0005               428661.27251752  428661.27253632                  0.0              0.0                  0.0              0.0
                      -4.014595488705       -0.0005366                  0.0              0.0                  0.0              0.0

            X0002A    428661.27251752  428661.27253632                  0.0              0.0                  0.0
                      -4.014595488705       -0.0005366                  0.0              0.0                  0.0

 XX0003               -214334.1130004  428661.27253632                  0.0              0.0                  0.0              0.0
                       -371229.544321     -120.0005366                  0.0              0.0                  0.0              0.0

            X0002B    -214334.1130004  428661.27253632                  0.0              0.0                  0.0
                       -371229.544321     -120.0005366                  0.0              0.0                  0.0

 XX0004               -214327.1595171  428661.27253632                  0.0              0.0                  0.0              0.0
                      371233.55891648      119.9994634                  0.0              0.0                  0.0              0.0

            X0002C    -214327.1595171  428661.27253632                  0.0              0.0                  0.0
                      371233.55891648      119.9994634                  0.0              0.0                  0.0

 X0001A               -776.8138994792  10352.292504495      -.9729315563E-3  .97568058213E-3      .11899407479E-3  .11899407479E-3
                      10323.106134502       94.3033978      -.7319006103E-4     -175.6979522      -5.050265387167       -5.0502654

            TERRA                 0.0              0.0      .97293155633E-3  .97568058213E-3                  0.0
                                  0.0              0.0      .73190061035E-4        4.3020478                  0.0

 X0001A               -776.8138994792  10352.292504495       -.429438086417  .42956224169271        220.100718927  92261.859744033
                      10323.106134502       94.3033978      .01032712072999      178.6224175      -2212.556346678        0.0000000

            X0002A    428661.27251752  428661.27253632        .429438086417  .42956224169271      92041.759025106
                      -4.014595488705       -0.0005366        -.01032712073       -1.3775825      2212.5563466778

 X0001B               9328.4791081828  10352.292504496      .22366259210862  .42956224169271      220.10071892716  92261.859744034
                      -4488.812496289      -25.6966022       .3667407318247       58.6224175      -2212.556346678        0.0000000

            X0002B    -214334.1130004  428661.27253632      -.2236625921086  .42956224169271      92041.759025107
                       -371229.544321     -120.0005366      -.3667407318247     -121.3775825       2212.556346678

 X0001C               -8551.665208703  10352.292504496      .20577549430838  .42956224169271      220.10071892682  92261.859744033
                      -5834.293638213     -145.6966022      -.3770678525547      -61.3775825      -2212.556346678        0.0000000

            X0002C    -214327.1595171  428661.27253632      -.2057754943084  .42956224169271      92041.759025106
                      371233.55891648      119.9994634      .37706785255469      118.6224175      2212.5563466779

 X0002C               -214327.1595171  428661.27253632      -.0349884145723  .04040037312914      .20402376862153  .20402376862153
                      371233.55891648      119.9994634       -.020199034499     -150.0018866      -8659.037675837    -8659.0376758

            TERRA                 0.0              0.0      .03498841457228  .04040037312914                  0.0
                                  0.0              0.0      .02019903449901       29.9981134                  0.0

 X0002A               428661.27251752  428661.27253632       .1330278076E-5  .04040037312914      .20402376862174  .20402376862174
                      -4.014595488705       -0.0005366      .04040037310724       89.9981134      -8659.037675837    -8659.0376758

            TERRA                 0.0              0.0      -.1330278076E-5  .04040037312914                  0.0
                                  0.0              0.0      -.0404003731072      -90.0018866                  0.0

 X0001C               -8551.665208703  10352.292504496      .54985023033E-3  .97568058213E-3      .11899407479E-3  .11899407479E-3
                      -5834.293638213     -145.6966022      -.8059884134E-3      -55.6979522      -5.050265387167       -5.0502654

            TERRA                 0.0              0.0      -.5498502303E-3  .97568058213E-3                  0.0
                                  0.0              0.0      .80598841341E-3      124.3020478                  0.0

 X0001A               -776.8138994792  10352.292504495      -.0019485236688  .08097057494321      -417.0560680929  .40976462541458
                      10323.106134502       94.3033978      -.0809471263366      -91.3789325      -41.49783474995   -17390.9508370

            X0002A    428661.27251752  428661.27253632      .00194852366882  .08097057494321      417.46583271831
                      -4.014595488705       -0.0005366      .08094712633655       88.6210675       -17349.4530023

 X0001B               9328.4791081828  10352.292504496      -.0691280059364  .08097057494321      -417.0560680929  .40976462541372
                      -4488.812496289      -25.6966022      .04216103416534      148.6210675      -41.49783474998   -17390.9508370

            X0002B    -214334.1130004  428661.27253632      .06912800593639  .08097057494321      417.46583271835
                       -371229.544321     -120.0005366      -.0421610341653      -31.3789325       -17349.4530023

 X0001C               -8551.665208703  10352.292504496      .07107652960521  .08097057494321      -417.0560680929  .40976462541473
                      -5834.293638213     -145.6966022      .03878609217121       28.6210675      -41.49783474992   -17390.9508370

            X0002C    -214327.1595171  428661.27253632      -.0710765296052  .08097057494321      417.46583271833
                      371233.55891648      119.9994634      -.0387860921712     -151.3789325       -17349.4530023

 LN1A                 -776.8138999116  10352.292504457      -1.457834665871  1.4619501369362      .42966123875258   .3759792628714
                      10323.106134432       94.3033978      -.1096188390401     -175.6998554      -7567.267710049    -7567.2677100

            VFF2A     -776.8321283437   10361.65775904      .77683207944E-6  .10361657783E-4      -.0536819758812
                      10332.496472772       94.2996020       -.103324965E-4      -85.7003983        -.26334201E-9

 LN1B                 9328.4791083378  10352.292504458      .63398463359342  1.4619501369364      .42966123856334  .37597926295958
                      -4488.812495879      -25.6966022      1.3173312746822       64.3001446      -7567.267710051    -7567.2677101

            VFF2B     9336.6204941068  10361.657759041      -.9336620479E-5  .10361657729E-4      -.0536819756038
                      -4493.491878764      -25.7003980      .44934918413E-5      154.2996021      .14141473193E-9

 LN1C                 -8551.665208426  10352.292504457      .82385003227758  1.4619501369363      .42966123867544  .37597926286539
                      -5834.293638552     -145.6966022      -1.207712435642      -55.6998554       -7567.26771005    -7567.2677101

            VFF2C     -8559.788365763  10361.657759041      .85597883669E-5  .10361657769E-4      -.0536819758101
                      -5839.004594007     -145.7003980      .58390046103E-5       34.2996020      .6641753273E-10
     Total network loss  P-loss  by summing injections =   2.776475118327E+05

Output for steady-state phasor switch currents.
      Node-K    Node-M            I-real            I-imag            I-magn          Degrees        Power            Reactive
      LN1A      COMPA         1.89019432E+00    1.80311446E-01    1.89877508E+00       5.4491    1.96522484E+02    9.82637251E+03
      LN1B      COMPB        -7.88942332E-01   -1.72711233E+00    1.89877513E+00    -114.5508    1.96525673E+02    9.82637274E+03
      LN1C      COMPC        -1.10125437E+00    1.54679982E+00    1.89877615E+00     125.4492    1.96537179E+02    9.82637779E+03
      VFF2A     RSNNHA       -7.76831986E-07    1.03324965E-05    1.03616578E-05      94.2996    5.36819759E-02    7.49680216E-10
      VFF2B     RSNNHB        9.33662045E-06   -4.49349179E-06    1.03616577E-05     -25.7004    5.36819754E-02   -3.46019263E-10
      VFF2C     RSNNHC       -8.55978837E-06   -5.83900462E-06    1.03616578E-05    -145.7004    5.36819758E-02   -8.74302069E-11
      VFF2A     SE2A              Open              Open              Open             Open          Open              Open
      VFF2B     SE2B              Open              Open              Open             Open          Open              Open
      VFF2C     SE2C              Open              Open              Open             Open          Open              Open
      X0001B    XX0003            Open              Open              Open             Open          Open              Open
      X0001C    XX0004            Open              Open              Open             Open          Open              Open
      XX0005    X0002A            Open              Open              Open             Open          Open              Open
      XX0003    X0002B            Open              Open              Open             Open          Open              Open
      XX0004    X0002C            Open              Open              Open             Open          Open              Open
      X0001A    XX0005            Open              Open              Open             Open          Open              Open
      VFUENA    IFUENA        4.31815456E-01    1.11020375E-01    4.45858847E-01      14.4185    9.25511589E+04   -2.37950360E+04
      VFUENB    IFUENB       -1.19761263E-01   -4.29473342E-01    4.45858847E-01    -105.5815    9.25511589E+04   -2.37950360E+04
      VFUENC    IFUENC       -3.12054193E-01    3.18452967E-01    4.45858847E-01     134.4185    9.25511589E+04   -2.37950360E+04
      COMPA     RSNSHA        1.89019432E+00    1.80311446E-01    1.89877508E+00       5.4491    1.96522484E+02    9.82637251E+03
      COMPB     RSNSHB       -7.88942332E-01   -1.72711233E+00    1.89877513E+00    -114.5508    1.96525673E+02    9.82637274E+03
      COMPC     RSNSHC       -1.10125437E+00    1.54679982E+00    1.89877615E+00     125.4492    1.96537179E+02    9.82637779E+03

Solution at nodes with known voltage.   Nodes that are shorted together by switches are shown as a group of names, with the printed
result applying to the composite group.   The entry "MVA" is  SQRT( P**2 + Q**2 )  in units of power,  while  "P.F."  is the
associated power factor.
              Node                Source  node  voltage             Injected  source  current              Injected  source  power
              name         Rectangular            Polar          Rectangular            Polar            P  and  Q    MVA and P.F.

               VFUENA
              IFUENA       428660.705       428660.705      .43181545603394  .44585884724938      92551.158906703  95561.083896204
                                  0.0              0.0      .11102037470999       14.4185472      -23795.03604627        0.9685026

               VFUENB
              IFUENB     -214330.3525       428660.705      -.1197612631759  .44585884725286       92551.15890712   95561.08389695
                      -371231.0601341     -120.0000000       -.429473342032     -105.5814528      -23795.03604765        0.9685026

               VFUENC
              IFUENC     -214330.3525       428660.705      -.3120541928573   .4458588472521      92551.158907125  95561.083896786
                      371231.06013415      120.0000000      .31845296731724      134.4185472      -23795.03604697        0.9685026

  +++  Node  "COMPC "  has no connected linear branches.  Add (to ground) the conductance  G = 1.00000000E-18  mhos.
  +++  Node  "COMPB "  has no connected linear branches.  Add (to ground) the conductance  G = 1.00000000E-18  mhos.
  +++  Node  "COMPA "  has no connected linear branches.  Add (to ground) the conductance  G = 1.00000000E-18  mhos.
Card of names for time-step loop output.          |  LN1A  LN1B  LN1C  COMPA COMPB COMPC SB1A  SB1B  SB1C  SE2A  SE2B  SE2C  VFF2A
Card of names for time-step loop output.          |  VFF2B VFF2C IFUENAIFUENBIFUENC
Card of names for time-step loop output.          |-5VFF2A VFF2B VFF2B VFF2C VFF2C VFF2A LN1A  LN1B  LN1B  LN1C  LN1C  LN1A
Card of names for time-step loop output.          |-5SB1A  SB1B  SB1B  SB1C  SB1C  SB1A
Blank card ending requests for output variables.  |BLANK OUTPUT

Column headings for the  55   EMTP output variables follow.  These are divided among the 5 possible classes as follows ....
  First  27     output variables are electric-network voltage differences (upper voltage minus lower voltage);
  Next   6     output variables are branch currents (flowing from the upper node to the lower node);
  Next   22     output variables belong to MODELS (with "MODELS" an internally-added upper name of pair).
   Step      Time      LN1A       LN1B       LN1C       COMPA      COMPB      COMPC      SB1A       SB1B       SB1C       SE2A
 

                       SE2B       SE2C       VFF2A      VFF2B      VFF2C      IFUENA     IFUENB     IFUENC     VFF2A      VFF2B
                                                                                                               VFF2B      VFF2C

                       VFF2C      LN1A       LN1B       LN1C       SB1A       SB1B       SB1C       VFUENA     VFUENB     VFUENC
                       VFF2A      LN1B       LN1C       LN1A       SB1B       SB1C       SB1A       IFUENA     IFUENB     IFUENC

                       COMPA      COMPB      COMPC      MODELS     MODELS     MODELS     MODELS     MODELS     MODELS     MODELS
                       RSNSHA     RSNSHB     RSNSHC     ANVOL      LONG       R0F        R1F        X0F        X1F        RDIVX

                       MODELS     MODELS     MODELS     MODELS     MODELS     MODELS     MODELS     MODELS     MODELS     MODELS
                       RINSER     CLOSE1     RPPOS      RPCERO     LPPOS      LPCERO     CPPOS      CPCERO     XP         CR

                       MODELS     MODELS     MODELS     MODELS     MODELS
                       SIMET      ENC1       ENC2       ENC1AS     ENC2AS
 ***      Phasor I(0) =  1.8901943E+00                     Switch  "LN1A  "  to  "COMPA "  closed in the steady-state.
 ***      Phasor I(0) = -7.8894233E-01                     Switch  "LN1B  "  to  "COMPB "  closed in the steady-state.
 ***      Phasor I(0) = -1.1012544E+00                     Switch  "LN1C  "  to  "COMPC "  closed in the steady-state.
 ***      Phasor I(0) = -7.7683199E-07                     Switch  "VFF2A "  to  "RSNNHA"  closed in the steady-state.
 ***      Phasor I(0) =  9.3366205E-06                     Switch  "VFF2B "  to  "RSNNHB"  closed in the steady-state.
 ***      Phasor I(0) = -8.5597884E-06                     Switch  "VFF2C "  to  "RSNNHC"  closed in the steady-state.
 ***      Phasor I(0) =  4.3181546E-01                     Switch  "VFUENA"  to  "IFUENA"  closed in the steady-state.
 ***      Phasor I(0) = -1.1976126E-01                     Switch  "VFUENB"  to  "IFUENB"  closed in the steady-state.
 ***      Phasor I(0) = -3.1205419E-01                     Switch  "VFUENC"  to  "IFUENC"  closed in the steady-state.
 ***      Phasor I(0) =  1.8901943E+00                     Switch  "COMPA "  to  "RSNSHA"  closed in the steady-state.
 ***      Phasor I(0) = -7.8894233E-01                     Switch  "COMPB "  to  "RSNSHB"  closed in the steady-state.
 ***      Phasor I(0) = -1.1012544E+00                     Switch  "COMPC "  to  "RSNSHC"  closed in the steady-state.
      0       0.0   -776.8139 9328.47911 -8551.6652  -776.8139 9328.47911 -8551.6652 428661.273 -214334.11 -214327.16        0.0
                          0.0        0.0 -776.83213 9336.62049 -8559.7884 428660.705 -214330.35 -214330.35 -10113.453 17896.4089
                   -7782.9562 -10105.293 17880.1443 -7774.8513 642995.386 -6.9534832 -642988.43 .431815456 -.11976126 -.31205419
                   1.89019432 -.78894233 -1.1012544        0.0   38.79507   1.075331   1.009316   9.628623   9.037524    .111681
                         360.    .046681    .024179    .317703    .330198   1.260348    .011579    .007506   10901.92   218.0383
                          1.0        1.0        0.0        0.0        0.0
    500     .5E-3  -2382.1394 9915.83414 -7533.6948 -2382.1394 9915.83414 -7533.6948 423384.361 -153622.21 -269762.16        0.0
                          0.0        0.0 -2383.6261 9924.60707 -7540.9809  423383.18 -153618.26 -269764.92 -12308.233  17465.588
                   -5157.3548 -12297.974 17449.5289 -5151.5554 577006.566 116139.951 -693146.52 .409125907 -.05110006 -.35802585
                   1.83871549 -.50904791 -1.3296676        0.0   38.79507   1.075331   1.009316   9.628623   9.037524    .111681
                         360.    .046681    .024179    .317703    .330198   1.260348    .011579    .007506   10901.92   218.0383
                          1.0        1.0        0.0        0.0        0.0
   1000     .1E-2  -3928.8088 10259.0284 -6330.2196 -3928.8088 10259.0284 -6330.2196 407682.343  -89127.62 -318554.72        0.0
                          0.0        0.0 -3931.7283 10268.2174 -6336.4891 407680.557 -89123.572 -318556.98 -14199.946 16604.7065
                   -2404.7608 -14187.837  16589.248 -2401.4108 496809.963 229427.104 -726237.07 .376369629 .018815748 -.39518538
                   1.74196166 -.21662048 -1.5253412        0.0   38.79507   1.075331   1.009316   9.628623   9.037524    .111681
                         360.    .046681    .024179    .317703    .330198   1.260348    .011579    .007506   10901.92   218.0383
                          1.0        1.0        0.0        0.0        0.0
   1500     .0015  -5378.7371 10349.6111 -4970.8739 -5378.7371 10349.6111 -4970.8739 381941.812 -22438.406 -359503.41        0.0
                          0.0        0.0 -5383.0173 10358.9898 -4975.9725 381939.485 -22434.368 -359505.12 -15742.007 15334.9623
                   407.044806 -15728.348  15320.485 407.863182 404380.218    337065. -741445.22  .33434491 .088268739 -.42261365
                   1.60231489 .081140862 -1.6834557        0.0   38.79507   1.075331   1.009316   9.628623   9.037524    .111681
                         360.    .046681    .024179    .317703    .330198   1.260348    .011579    .007506   10901.92   218.0383
                          1.0        1.0        0.0        0.0        0.0
   2000      .002   -6696.224 10185.3525 -3489.1285  -6696.224 10185.3525 -3489.1285 346796.613 44803.3122 -391599.92        0.0
                          0.0        0.0 -6701.7579 10194.6895 -3492.9316 346793.795 44807.2448 -391601.04 -16896.447  13687.621
                   3208.82635 -16881.576  13674.481 3207.09544   301993.3 436403.237 -738396.54 .284086215 .155548873 -.43963509
                   1.42321365  .37690441 -1.8001181        0.0   38.79507   1.075331   1.009316   9.628623   9.037524    .111681
                         360.    .046681    .024179    .317703    .330198   1.260348    .011579    .007506   10901.92   218.0383
                          1.0        1.0        0.0        0.0        0.0
   2500     .0025  -7848.8272 9770.29662 -1921.4694 -7848.8272 9770.29662 -1921.4694 303112.133 110941.823 -414053.96        0.0
                          0.0        0.0 -7855.4798 9779.36222 -1923.8825 303108.891 110945.554 -414054.45 -17634.842 11703.2447
                   5931.59728 -17619.124  11691.766 5927.35786  192170.31 524995.778 -717166.09 .226833213 .218998509 -.44583172
                   1.20906838 .663386722 -1.8724556        0.0   38.79507   1.075331   1.009316   9.628623   9.037524    .111681
                         360.    .046681    .024179    .317703    .330198   1.260348    .011579    .007506   10901.92   218.0383
                          1.0        1.0        0.0        0.0        0.0
   3000      .003  -8808.1655 9114.66331 -306.49783 -8808.1655 9114.66331 -306.49783 251964.022 174348.579  -426312.6        0.0
                          0.0        0.0 -8815.7732 9123.23457  -307.4614 251960.441 174352.016 -426312.46 -17939.008 9430.69596
                   8508.31177 -17922.829 9421.16113 8501.66765  77615.443 600661.181 -678276.62 .163995105 .277055501 -.44105061
                   .965151573 .933534538  -1.898687        0.0   38.79507   1.075331   1.009316   9.628623   9.037524    .111681
                         360.    .046681    .024179    .317703    .330198   1.260348    .011579    .007506   10901.92   218.0383
                          1.0        1.0        0.0        0.0        0.0
   3500     .0035  -9550.6179 8234.59748 1316.02043 -9550.6179 8234.59748 1316.02043 194611.722 233462.295 -428074.02        0.0
                          0.0        0.0 -9558.9928 8242.46271 1316.53008 194607.888 233465.353 -428073.24 -17801.456 6925.93263
                   10875.5229 -17785.215 6918.57705 10866.6383 -38850.573 661536.312 -622685.74 .097118273 .328290776 -.42540905
                   .697470735 1.18069685 -1.8781664        0.0   38.79507   1.075331   1.009316   9.628623   9.037524    .111681
                         360.    .046681    .024179    .317703    .330198   1.260348    .011579    .007506   10901.92   218.0383
                          1.0        1.0        0.0        0.0        0.0
   4000      .004  -10057.903 7151.76843 2906.13425 -10057.903 7151.76843 2906.13425 132467.436 286827.394 -419294.83        0.0
                          0.0        0.0 -10066.839 7158.73433 2908.10444 132463.443 286829.997 -419293.44 -17225.573 4250.62989
                   12974.9432 -17209.671 4245.63418 12964.0369 -154359.96 706122.224 -551762.27 .027850392 .371442302 -.39929269
                     .4126146 1.39878428 -1.8113993        0.0   38.79507   1.075331   1.009316   9.628623   9.037524    .111681
                         360.    .046681    .024179    .317703    .330198   1.260348    .011579    .007506   10901.92   218.0383
                          1.0        1.0        0.0        0.0        0.0
   4500     .0045  -10317.527 5892.83872 4424.68872 -10317.527 5892.83872 4424.68872  67061.362  333129.85 -400191.21        0.0
                          0.0        0.0 -10326.806 5898.73417 4428.07134 67057.3081 333131.936 -400189.24  -16225.54 1470.66283
                   14754.8768 -16210.366    1468.15 14742.2162 -266068.49 733321.063 -467252.57 -.04210342 .405447757 -.36334434
                   .117599571 1.58243059 -1.7000293        0.0   38.79507   1.075331   1.009316   9.628623   9.037524    .111681
                         360.    .046681    .024179    .317703    .330198   1.260348    .011579    .007506   10901.92   218.0383
                          1.0        1.0        0.0        0.0        0.0
   5000      .005  -10323.101 4488.80854 5834.29291 -10323.101 4488.80854 5834.29291 4.01469944 371229.544 -371233.56        0.0
                          0.0        0.0 -10332.492 4493.48815 5839.00388 -.45661E-7  371231.06 -371231.06  -14825.98 -1345.5157
                   16171.4959  -14811.91 -1345.4844 16157.3943 -371225.53 742463.103 -371237.57 -.11102035 .429469648 -.31844929
                   -.18031223 1.72711167 -1.5467994        0.0   38.79507   1.075331   1.009316   9.628623   9.037524    .111681
                         360.    .046681    .024179    .317703    .330198   1.260348    .011579    .007506   10901.92   218.0383
                          1.0        1.0        0.0        0.0        0.0
   5500     .0055  -10074.486 2974.24901 7100.23744 -10074.486 2974.24901 7100.23744 -67053.432 400188.335  -333134.9        0.0
                          0.0        0.0 -10083.758 2977.59721 7106.16095 -67057.308 400189.244 -333131.94 -13061.355 -4128.5637
                   17189.9191 -13048.735 -4125.9884 17174.7239 -467241.77 733323.238 -266081.47 -.17720369 .442916644 -.26571295
                   -.47378411 1.82926577 -1.3554817        0.0   38.79507   1.075331   1.009316   9.628623   9.037524    .111681
                         360.    .046681    .024179    .317703    .330198   1.260348    .011579    .007506   10901.92   218.0383
                          1.0        1.0        0.0        0.0        0.0
   6000      .006  -9577.8038 1386.45356 8191.35026 -9577.8038 1386.45356 8191.35026  -132459.8 419293.161 -286833.36        0.0
                          0.0        0.0  -9586.729 1388.38823 8198.34072 -132463.44  419293.44   -286830. -10975.117 -6809.9525
                   17785.0697 -10964.257 -6804.8967 17769.1541 -551752.96 706126.521 -154373.56 -.23902374 .445457568 -.20643383
                   -.75558927 1.88637696 -1.1307879        0.0   38.79507   1.075331   1.009316   9.628623   9.037524    .111681
                         360.    .046681    .024179    .317703    .330198   1.260348    .011579    .007506   10901.92   218.0383
                          1.0        1.0        0.0        0.0        0.0
   6500     .0065   -8845.284  -235.4805 9080.76447  -8845.284  -235.4805 9080.76447 -194604.57 428073.597 -233469.03        0.0
                          0.0        0.0 -8853.6428 -235.00723 9088.64998 -194607.89  428073.24 -233465.35 -8618.6355 -9323.6572
                   17942.2927 -8609.8035  -9316.245 17926.0484 -622678.16 661542.626 -38864.462 -.29495814 .437029818 -.14207168
                   -1.0187889 1.89703936 -.87824967        0.0   38.79507   1.075331   1.009316   9.628623   9.037524    .111681
                         360.    .046681    .024179    .317703    .330198   1.260348    .011579    .007506   10901.92   218.0383
                          1.0        1.0        0.0        0.0        0.0
   7000      .007  -7894.9646 -1851.6161 9746.58067 -7894.9646 -1851.6161 9746.58067 -251957.53 426313.441 -174355.91        0.0
                          0.0        0.0 -7902.5505  -1852.616  9755.1665 -251960.44 426312.457 -174352.02 -6049.9344 -11607.783
                    17657.717 -6043.3486 -11598.197 17641.5453 -678270.97 600669.355 77601.6122 -.34362951 .417840848 -.07421134
                   -1.2569032  1.8609904 -.60408698        0.0   38.79507   1.075331   1.009316   9.628623   9.037524    .111681
                         360.    .046681    .024179    .317703    .330198   1.260348    .011579    .007506   10901.92   218.0383
                          1.0        1.0        0.0        0.0        0.0
   7500     .0075  -6750.2444 -3422.1589 10172.4033 -6750.2444 -3422.1589 10172.4033 -303106.45 414056.033 -110949.58        0.0
                          0.0        0.0 -6756.8711 -3424.6073 10181.4783 -303108.89 414054.446 -110945.55 -3332.2638 -13606.086
                   16938.3494 -3328.0855 -13594.562 16922.6478 -717162.49 525005.612 192156.875 -.38383998 .388363455 -.00452347
                   -1.4640687 1.77911775 -.31504857        0.0   38.79507   1.075331   1.009316   9.628623   9.037524    .111681
                         360.    .046681    .024179    .317703    .330198   1.260348    .011579    .007506   10901.92   218.0383
                          1.0        1.0        0.0        0.0        0.0
   8000      .008  -5439.3112 -4908.4366 10347.7478 -5439.3112 -4908.4366 10347.7478 -346791.89 391603.191 -44811.297        0.0
                          0.0        0.0 -5444.8161 -4912.2725 10357.0886  -346793.8  391601.04 -44807.245  -532.5436 -15269.361
                   15801.9047 -530.87466 -15256.184  15787.059 -738395.09 436414.488 301980.597 -.41459876 .349323118 .065275641
                   -1.6351827 1.65343702 -.01825338        0.0   38.79507   1.075331   1.009316   9.628623   9.037524    .111681
                         360.    .046681    .024179    .317703    .330198   1.260348    .011579    .007506   10901.92   218.0383
                          1.0        1.0        0.0        0.0        0.0
   8500     .0085  -3994.4442 -6273.8522 10268.2964 -3994.4442 -6273.8522 10268.2964 -381938.17 359507.779 22430.3885        0.0
                          0.0        0.0 -3998.6912 -6278.9817 10277.6728 -381939.48 359505.117 22434.3679 2280.29051 -16556.655
                    14276.364 2279.40803 -16542.149 14262.7405 -741445.95 337077.391 404368.556 -.43514869 .301681267 .133467426
                   -1.7660345 1.48704376 .278991192        0.0   38.79507   1.075331   1.009316   9.628623   9.037524    .111681
                         360.    .046681    .024179    .317703    .330198   1.260348    .011579    .007506   10901.92   218.0383
                          1.0        1.0        0.0        0.0        0.0
   9000      .009   -2451.221 -7484.7846 9936.00558  -2451.221 -7484.7846 9936.00558 -407679.86 318560.093 89119.7636        0.0
                          0.0        0.0 -2454.1054 -7491.0814 9945.18686 -407680.56 318556.985  89123.572 5036.97596 -17436.268
                   12399.2923 5033.56362  -17420.79 12387.2266 -726239.95  229440.33 496799.621 -.44498405 .246611125  .19837292
                   -1.8533996  1.2840342 .569365897        0.0   38.79507   1.075331   1.009316   9.628623   9.037524    .111681
                         360.    .046681    .024179    .317703    .330198   1.260348    .011579    .007506   10901.92   218.0383
                          1.0        1.0        0.0        0.0        0.0
   9500     .0095  -847.64042 -8511.4169 9359.05728 -847.64042 -8511.4169 9359.05728 -423383.11 269768.399 153614.713        0.0
                          0.0        0.0 -849.09172 -8518.7258 9367.81749 -423383.18 269764.922 153618.258 7669.63406 -17886.543
                   10216.9092 7663.77644 -17870.474 10206.6977 -693151.51 116153.686 576997.826 -.44386236 .185468586 .258393772
                   -1.8951285 1.04940862 .845720792        0.0   38.79507   1.075331   1.009316   9.628623   9.037524    .111681
                         360.    .046681    .024179    .317703    .330198   1.260348    .011579    .007506   10901.92   218.0383
                          1.0        1.0        0.0        0.0        0.0
  10000       .01  776.811229 -9328.4693  8551.6581 776.811229 -9328.4693  8551.6581 -428661.27 214334.113  214327.16        0.0
                          0.0        0.0 776.829357 -9336.6108  8559.7814 -428660.71 214330.353 214330.352 10113.4401 -17896.392
                   7782.95205 10105.2806 -17880.127 7774.84688 -642995.39 6.95342935 642988.432 -.43181114 .119759094 .312052046
                   -1.8901928 .788941559 1.10125097        0.0   38.79507   1.075331   1.009316   9.628623   9.037524    .111681
                         360.    .046681    .024179    .317703    .330198   1.260348    .011579    .007506   10901.92   218.0383
                          1.0        1.0        0.0        0.0        0.0
  10500     .0105  2382.13538 -9915.8243 7533.68895 2382.13538 -9915.8243 7533.68895 -423384.37 153622.209  269762.16        0.0
                          0.0        0.0 2383.62264 -9924.5977  7540.9751 -423383.18 153618.258 269764.922 12308.2204 -17465.573
                   5157.35246 12297.9597 -17449.513 5151.55357 -577006.58 -116139.95 693146.529 -.40912752 .051100855 .358026662
                   -1.8387141 .509049235 1.32966577        0.0   38.79507   1.075331   1.009316   9.628623   9.037524    .111681
                         360.    .046681    .024179    .317703    .330198   1.260348    .011579    .007506   10901.92   218.0383
                          1.0        1.0        0.0        0.0        0.0
  11000      .011  3928.80315 -10259.019  6330.2156 3928.80315 -10259.019  6330.2156 -407682.34 89127.6168  318554.72        0.0
                          0.0        0.0 3931.72221 -10268.208 6336.48553 -407680.56  89123.572 318556.985 14199.9299 -16604.693
                   2404.76333 14187.8219 -16589.234 2401.41245 -496809.95  -229427.1 726237.057 -.37636972  -.0188157 .395185423
                   -1.7419605 .216620764 1.52533975        0.0   38.79507   1.075331   1.009316   9.628623   9.037524    .111681
                         360.    .046681    .024179    .317703    .330198   1.260348    .011579    .007506   10901.92   218.0383
                          1.0        1.0        0.0        0.0        0.0
  11500     .0115  5378.73103 -10349.602 4970.87123 5378.73103 -10349.602 4970.87123 -381941.81 22438.4064 359503.406        0.0
                          0.0        0.0  5383.0104 -10358.981 4975.97016 -381939.48 22434.3679 359505.117  15741.991 -15334.951
                   -407.04024 15728.3333 -15320.473  -407.8598 -404380.22   -337065. 741445.219 -.33434437   -.088269 .422613369
                   -1.6023143 -.08114011 1.68345444        0.0   38.79507   1.075331   1.009316   9.628623   9.037524    .111681
                         360.    .046681    .024179    .317703    .330198   1.260348    .011579    .007506   10901.92   218.0383
                          1.0        1.0        0.0        0.0        0.0
  12000      .012  6696.21617 -10185.344 3489.12797 6696.21617 -10185.344 3489.12797 -346796.61 -44803.311 391599.926        0.0
                          0.0        0.0 6701.75063 -10194.681 3492.93048  -346793.8 -44807.245  391601.04 16896.4317 -13687.612
                   -3208.8201 16881.5603 -13674.472 -3207.0882  -301993.3 -436403.24  738396.54 -.28408642 -.15554879 .439635207
                   -1.4232136 -.37690367 1.80011641        0.0   38.79507   1.075331   1.009316   9.628623   9.037524    .111681
                         360.    .046681    .024179    .317703    .330198   1.260348    .011579    .007506   10901.92   218.0383
                          1.0        1.0        0.0        0.0        0.0
  12500     .0125   7848.8186 -9770.2894 1921.47083  7848.8186 -9770.2894 1921.47083 -303112.13 -110941.82 414053.955        0.0
                          0.0        0.0 7855.47153  -9779.355 1923.88344 -303108.89 -110945.55 414054.446 17634.8265 -11703.238
                   -5931.5881  17619.108  -11691.76 -5927.3478 -192170.31 -524995.78 717166.086 -.22683336 -.21899843 .445831784
                   -1.2090678 -.66338572 1.87245399        0.0   38.79507   1.075331   1.009316   9.628623   9.037524    .111681
                         360.    .046681    .024179    .317703    .330198   1.260348    .011579    .007506   10901.92   218.0383
                          1.0        1.0        0.0        0.0        0.0
  13000      .013  8808.15702 -9114.6575 306.500436 8808.15702 -9114.6575 306.500436 -251964.02 -174348.58 426312.602        0.0
                          0.0        0.0  8815.7644 -9123.2285 307.464096 -251960.44 -174352.02 426312.457 17938.9929 -9430.6926
                   -8508.3003 17922.8145 -9421.1579 -8501.6566 -77615.443 -600661.18 678276.624 -.16399487 -.27705562 .441050487
                   -.96515144 -.93353326 1.89868555        0.0   38.79507   1.075331   1.009316   9.628623   9.037524    .111681
                         360.    .046681    .024179    .317703    .330198   1.260348    .011579    .007506   10901.92   218.0383
                          1.0        1.0        0.0        0.0        0.0
  13500     .0135  9550.60931 -8234.5928 -1316.0165 9550.60931 -8234.5928 -1316.0165 -194611.72 -233462.29 428074.017        0.0
                          0.0        0.0 9558.98432 -8242.4584 -1316.5259 -194607.89 -233465.35  428073.24 17801.4427 -6925.9324
                    -10875.51 17785.2022 -6918.5764 -10866.626 38850.5726 -661536.31  622685.74  -.0971183 -.32829077 .425409075
                   -.69747067 -1.1806955 1.87816503        0.0   38.79507   1.075331   1.009316   9.628623   9.037524    .111681
                         360.    .046681    .024179    .317703    .330198   1.260348    .011579    .007506   10901.92   218.0383
                          1.0        1.0        0.0        0.0        0.0
  14000      .014  10057.8937 -7151.7653 -2906.1284 10057.8937 -7151.7653 -2906.1284 -132467.44 -286827.39  419294.83        0.0
                          0.0        0.0 10066.8299 -7158.7315 -2908.0984 -132463.44   -286830.  419293.44 17225.5615 -4250.6331
                   -12974.928  17209.659 -4245.6368 -12964.022 154359.957 -706122.22 551762.266 -.02785036 -.37144232 .399292676
                   -.41261487 -1.3987828 1.81139811        0.0   38.79507   1.075331   1.009316   9.628623   9.037524    .111681
                         360.    .046681    .024179    .317703    .330198   1.260348    .011579    .007506   10901.92   218.0383
                          1.0        1.0        0.0        0.0        0.0
  14500     .0145  10317.5198 -5892.8377 -4424.6821 10317.5198 -5892.8377 -4424.6821 -67061.362 -333129.85 400191.212        0.0
                          0.0        0.0 10326.7974  -5898.733 -4428.0644 -67057.308 -333131.94 400189.244 16225.5304 -1470.6687
                   -14754.862 16210.3575 -1468.1557 -14742.202 266068.489 -733321.06 467252.574 .042103351 -.40544771 .363344364
                   -.11760003 -1.5824291  1.7000282        0.0   38.79507   1.075331   1.009316   9.628623   9.037524    .111681
                         360.    .046681    .024179    .317703    .330198   1.260348    .011579    .007506   10901.92   218.0383
                          1.0        1.0        0.0        0.0        0.0
  % % % % % %   Suspended simulation;  plot data space exhausted;  SPY SPACE is required.   LIMBUF =  840000.
  % % % % % %   Suspended simulation;  plot data space exhausted;  SPY SPACE is required.   LIMBUF =  840000.
  +++  Time-sharing disabled.   Send  user-keyed interrupt to silence alarm.
   Current values.  INDBUF  INDBEG  LIMBUF  MFLUSH  NUMDCD  KCARD1  KCARD2
                    839994      50  840000    1000     230       1     231
Plot timespan now in memory (in sec) = 0.00000000E+00   1.49990000E-02
   ++++  Begin plot-data copy from memory to disk.   MFLUSH, INDBUF, N4, Tbeg,  Tend = 1001  839994       1  -1.00000E+00
1.00000E+19
  15000      .015  10323.0939  -4488.809  -5834.285 10323.0939  -4488.809  -5834.285 -4.0146261 -371229.54 371233.559        0.0
                          0.0        0.0 10332.4844 -4493.4883 -5838.9961 -.61533E-6 -371231.06  371231.06 14825.9727 1345.50777
                    -16171.48 14811.9029 1345.47597 -16157.379  371225.53  -742463.1 371237.574 .111020359 -.42946966 .318449301
                   .180311571 -1.7271101 1.54679858        0.0   38.79507   1.075331   1.009316   9.628623   9.037524    .111681
                         360.    .046681    .024179    .317703    .330198   1.260348    .011579    .007506   10901.92   218.0383
                          1.0        1.0        0.0        0.0        0.0
  15500     .0155  10074.4798 -2974.2513 -7100.2285 10074.4798 -2974.2513 -7100.2285 67053.4319 -400188.34 333134.903        0.0
                          0.0        0.0 10083.7518 -2977.5994 -7106.1524 67057.3081 -400189.24 333131.936 13061.3511 4128.55299
                   -17189.904  13048.731 4125.97722 -17174.708 467241.767 -733323.24 266081.471 .177203712 -.44291666 .265712943
                   .473783204 -1.8292643 1.35548107        0.0   38.79507   1.075331   1.009316   9.628623   9.037524    .111681
                         360.    .046681    .024179    .317703    .330198   1.260348    .011579    .007506   10901.92   218.0383
                          1.0        1.0        0.0        0.0        0.0
  16000      .016  9577.79847 -1386.4574  -8191.341 9577.79847 -1386.4574  -8191.341   132459.8 -419293.16 286833.361        0.0
                          0.0        0.0  9586.7235  -1388.392 -8198.3315 132463.443 -419293.44 286829.997 10975.1155 6809.93957
                   -17785.055 10964.2559 6804.88358 -17769.139  551752.96 -706126.52 154373.561 .239023667 -.44545753 .206433863
                    .75558828 -1.8863754 1.13078755        0.0   38.79507   1.075331   1.009316   9.628623   9.037524    .111681
                         360.    .046681    .024179    .317703    .330198   1.260348    .011579    .007506   10901.92   218.0383
                          1.0        1.0        0.0        0.0        0.0
  16500     .0165  8845.28009 235.475314 -9080.7554 8845.28009 235.475314 -9080.7554 194604.568  -428073.6 233469.029        0.0
                          0.0        0.0 8853.63868  235.00195 -9088.6406 194607.888 -428073.24 233465.353 8618.63673 9323.64258
                   -17942.279 8609.80477 9316.23071 -17926.035 622678.166 -661542.63 38864.4601 .294958084 -.43702979 .142071704
                   1.01878777 -1.8970381 .878249579        0.0   38.79507   1.075331   1.009316   9.628623   9.037524    .111681
                         360.    .046681    .024179    .317703    .330198   1.260348    .011579    .007506   10901.92   218.0383
                          1.0        1.0        0.0        0.0        0.0
  17000      .017  7894.96159 1851.60975 -9746.5713 7894.96159 1851.60975 -9746.5713 251957.526 -426313.44 174355.915        0.0
                          0.0        0.0 7902.54783 1852.60932 -9755.1571 251960.441 -426312.46 174352.016 6049.93852 11607.7665
                   -17657.705 6043.35183 11598.1811 -17641.533 678270.967 -600669.36 -77601.612  .34362966 -.41784092  .07421126
                   1.25690179 -1.8609893 .604087248        0.0   38.79507   1.075331   1.009316   9.628623   9.037524    .111681
                         360.    .046681    .024179    .317703    .330198   1.260348    .011579    .007506   10901.92   218.0383
                          1.0        1.0        0.0        0.0        0.0
  17500     .0175   6750.2433 3422.15124 -10172.395  6750.2433 3422.15124 -10172.395 303106.454 -414056.03 110949.579        0.0
                          0.0        0.0 6756.87023 3424.59927  -10181.47 303108.891 -414054.45 110945.554 3332.27096 13606.0688
                    -16938.34 3328.09206 13594.5458 -16922.638 717162.487 -525005.61 -192156.87 .383839902  -.3883634 .004523501
                    1.4640674 -1.7791169 .315049037        0.0   38.79507   1.075331   1.009316   9.628623   9.037524    .111681
                         360.    .046681    .024179    .317703    .330198   1.260348    .011579    .007506   10901.92   218.0383
                          1.0        1.0        0.0        0.0        0.0
  18000      .018   5439.3115 4908.42811  -10347.74  5439.3115 4908.42811  -10347.74 346791.894 -391603.19 44811.2967        0.0
                          0.0        0.0 5444.81613 4912.26428  -10357.08 346793.795 -391601.04 44807.2448 532.551856 15269.3447
                   -15801.897 530.883395 15256.1677 -15787.051 738395.086 -436414.49  -301980.6 .414598717 -.34932309 -.06527563
                   1.63518139 -1.6534364 .018254091        0.0   38.79507   1.075331   1.009316   9.628623   9.037524    .111681
                         360.    .046681    .024179    .317703    .330198   1.260348    .011579    .007506   10901.92   218.0383
                          1.0        1.0        0.0        0.0        0.0
  18500     .0185  3994.44613 6273.84298 -10268.289 3994.44613 6273.84298 -10268.289 381938.168 -359507.78 -22430.389        0.0
                          0.0        0.0 3998.69295 6278.97271 -10277.666 381939.485 -359505.12 -22434.368 -2280.2798 16556.6384
                   -14276.359 -2279.3968 16542.1321 -14262.735 741445.947 -337077.39 -404368.56 .435148823 -.30168132  -.1334675
                   1.76603307 -1.4870433  -.2789902        0.0   38.79507   1.075331   1.009316   9.628623   9.037524    .111681
                         360.    .046681    .024179    .317703    .330198   1.260348    .011579    .007506   10901.92   218.0383
                          1.0        1.0        0.0        0.0        0.0
  19000      .019  2451.22412 7484.77514 -9935.9993 2451.22412 7484.77514 -9935.9993 407679.856 -318560.09 -89119.763        0.0
                          0.0        0.0 2454.10862 7491.07209 -9945.1807 407680.557 -318556.98 -89123.572 -5036.9635 17436.2528
                   -12399.289  -5033.551 17420.7744 -12387.223 726239.949 -229440.33 -496799.62 .444984046 -.24661111 -.19837293
                   1.85339839 -1.2840341 -.56936475        0.0   38.79507   1.075331   1.009316   9.628623   9.037524    .111681
                         360.    .046681    .024179    .317703    .330198   1.260348    .011579    .007506   10901.92   218.0383
                          1.0        1.0        0.0        0.0        0.0
  19500     .0195  847.645164 8511.40746 -9359.0526 847.645164 8511.40746 -9359.0526 423383.113  -269768.4 -153614.71        0.0
                          0.0        0.0 849.096266 8518.71643 -9367.8127  423383.18 -269764.92 -153618.26 -7669.6202 17886.5291
                   -10216.909 -7663.7623 17870.4601 -10206.698 693151.513 -116153.69 -576997.83 .443862305 -.18546855 -.25839376
                   1.89512729  -1.049407 -.84571951        0.0   38.79507   1.075331   1.009316   9.628623   9.037524    .111681
                         360.    .046681    .024179    .317703    .330198   1.260348    .011579    .007506   10901.92   218.0383
                          1.0        1.0        0.0        0.0        0.0
  20000       .02  -776.80565 9328.46054 -8551.6549 -776.80565 9328.46054 -8551.6549 428661.273 -214334.11 -214327.16        0.0
                          0.0        0.0 -776.82374 9336.60176  -8559.778 428660.705 -214330.35 -214330.35 -10113.425 17896.3798
                   -7782.9543 -10105.266 17880.1154 -7774.8492 642995.385  -6.953402 -642988.43 .431811215 -.11975913 -.31205209
                   1.89019183 -.78894195 -1.1012495        0.0   38.79507   1.075331   1.009316   9.628623   9.037524    .111681
                         360.    .046681    .024179    .317703    .330198   1.260348    .011579    .007506   10901.92   218.0383
                          1.0        1.0        0.0        0.0        0.0
  20500     .0205  -2382.1287 9915.81593 -7533.6872 -2382.1287 9915.81593 -7533.6872 423384.369 -153622.21 -269762.16        0.0
                          0.0        0.0 -2383.6158 9924.58901 -7540.9733  423383.18 -153618.26 -269764.92 -12308.205 17465.5623
                   -5157.3575 -12297.945 17449.5032 -5151.5586 577006.578 116139.951 -693146.53 .409127508 -.05110084 -.35802666
                   1.83871329  -.5090499 -1.3296643        0.0   38.79507   1.075331   1.009316   9.628623   9.037524    .111681
                         360.    .046681    .024179    .317703    .330198   1.260348    .011579    .007506   10901.92   218.0383
                          1.0        1.0        0.0        0.0        0.0
  21000      .021  -3928.7959 10259.0113 -6330.2154 -3928.7959 10259.0113 -6330.2154 407682.337 -89127.617 -318554.72        0.0
                          0.0        0.0  -3931.715 10268.2003 -6336.4853 407680.557 -89123.572 -318556.98 -14199.915 16604.6856
                   -2404.7703 -14187.807 16589.2268 -2401.4195 496809.954 229427.104 -726237.06 .376369668 .018815737 -.39518541
                   1.74195993 -.21662166 -1.5253383        0.0   38.79507   1.075331   1.009316   9.628623   9.037524    .111681
[...]
                         360.    .046681    .024179    .317703    .330198   1.260348    .011579    .007506   10901.92   218.0383
                          1.0        1.0        0.0        0.0        0.0
 113000      .113  -249013.42 -173226.61 422240.032 -249013.42 -173226.61 422240.032 -249013.42 -173226.61 422240.032        0.0
                          0.0        0.0 -240648.73 -177034.17 417682.893 -251960.44 -174352.02 426312.457 -63614.559 -594717.06
                   658331.619 -75786.808 -595466.64 671253.452 -75786.808 -595466.64 671253.452 -76.578809 15.5678715 61.0109377
                   -101.44798 67.5282164 33.9197972        0.0   38.79507   1.075331   1.009316   9.628623   9.037524    .111681
                         360.    .046681    .024179    .317703    .330198   1.260348    .011579    .007506   10901.92   218.0383
                          1.0        1.0        0.0        0.0        0.0
 113500     .1135  -196542.22 -236000.14 432542.356 -196542.22 -236000.14 432542.356 -196542.22 -236000.14 432542.356        0.0
                          0.0        0.0  -195067.2 -235759.88 430827.079 -194607.89 -233465.35  428073.24  40692.682 -666586.96
                   625894.277 39457.9241  -668542.5 629084.572 39457.9241  -668542.5 629084.572 -20.038249 6.33566886  13.702581
                   -107.65868 61.4520627   46.20662        0.0   38.79507   1.075331   1.009316   9.628623   9.037524    .111681
                         360.    .046681    .024179    .317703    .330198   1.260348    .011579    .007506   10901.92   218.0383
                          1.0        1.0        0.0        0.0        0.0
 114000      .114  -136320.65 -286365.02 422685.671 -136320.65 -286365.02 422685.671 -136320.65 -286365.02 422685.671        0.0
                          0.0        0.0 -135039.55 -286135.84 421175.388 -132463.44   -286830.  419293.44  151096.29 -707311.23
                   556214.938 150044.377  -709050.7 559006.318 150044.377  -709050.7 559006.318 -82.606936 10.7025179 71.9044183
                   -111.93027 53.7511556 58.1791418        0.0   38.79507   1.075331   1.009316   9.628623   9.037524    .111681
                         360.    .046681    .024179    .317703    .330198   1.260348    .011579    .007506   10901.92   218.0383
                          1.0        1.0        0.0        0.0        0.0
 114500     .1145  -64663.558 -331355.47  396019.03 -64663.558 -331355.47  396019.03 -64663.558 -331355.47  396019.03        0.0
                          0.0        0.0 -61381.829 -333171.08 394552.908 -67057.308 -333131.94 400189.244  271789.25 -727723.99
                   455934.737 266691.914  -727374.5 460682.588 266691.914  -727374.5 460682.588 -27.610023 3.88932896 23.7206945
                   -114.54447 44.6562504 69.8882152        0.0   38.79507   1.075331   1.009316   9.628623   9.037524    .111681
                         360.    .046681    .024179    .317703    .330198   1.260348    .011579    .007506   10901.92   218.0383
                          1.0        1.0        0.0        0.0        0.0
 115000      .115  -4508.5119 -371077.98 375586.495 -4508.5119 -371077.98 375586.495  -4508.512 -371077.98 375586.495        0.0
                          0.0        0.0 -10249.462 -370018.67 380268.132 .127058E-4 -371231.06  371231.06 359769.208  -750286.8
                   390517.594 366569.471 -746664.48 380095.006 366569.471 -746664.48 380095.007 -68.326951 6.71849269 61.6084582
                   -115.08207 34.3573635 80.7246505        0.0   38.79507   1.075331   1.009316   9.628623   9.037524    .111681
                         360.    .046681    .024179    .317703    .330198   1.260348    .011579    .007506   10901.92   218.0383
                          1.0        1.0        0.0        0.0        0.0
 115500     .1155  74912.3061 -398521.33 323609.026 74912.3061 -398521.33 323609.026  74912.306 -398521.33 323609.026        0.0
                          0.0        0.0 78498.1602 -401289.42 322791.259 67057.3081 -400189.24 333131.936 479787.579 -724080.68
                   244293.099 473433.638 -722130.36  248696.72 473433.638 -722130.36  248696.72 -50.457014 1.26482645 49.1921874
                   -113.78229  23.138034 90.6442395        0.0   38.79507   1.075331   1.009316   9.628623   9.037524    .111681
                         360.    .046681    .024179    .317703    .330198   1.260348    .011579    .007506   10901.92   218.0383
                          1.0        1.0        0.0        0.0        0.0
 116000      .116   130286.45 -421777.99 291491.542  130286.45 -421777.99 291491.542  130286.45 -421777.99 291491.542        0.0
                          0.0        0.0 121174.113 -420234.53 299060.414 132463.443 -419293.44 286829.997  541408.64 -719294.94
                   177886.301 552064.442 -713269.53 161205.092 552064.442 -713269.53 161205.092 -39.673931 -2.2780358 41.9519671
                   -110.56468 11.2580125 99.3066989        0.0   38.79507   1.075331   1.009316   9.628623   9.037524    .111681
                         360.    .046681    .024179    .317703    .330198   1.260348    .011579    .007506   10901.92   218.0383
                          1.0        1.0        0.0        0.0        0.0
 116500     .1165  198858.183 -426813.61 227955.427 198858.183 -426813.61 227955.427 198858.183 -426813.61 227955.428        0.0
                          0.0        0.0 198404.896 -426357.34 227952.448 194607.888 -428073.24 233465.353  624762.24 -654309.79
                   29547.5512 625671.794 -654769.04  29097.244 625671.794 -654769.04 29097.2443 -72.867511  -3.190775 76.0582856
                   -105.44637 -.99083927 106.437236        0.0   38.79507   1.075331   1.009316   9.628623   9.037524    .111681
                         360.    .046681    .024179    .317703    .330198   1.260348    .011579    .007506   10901.92   218.0383
                          1.0        1.0        0.0        0.0        0.0
 117000      .117   250358.66 -425396.95  175038.29  250358.66 -425396.95  175038.29  250358.66 -425396.95  175038.29        0.0
                          0.0        0.0 247143.944 -428469.47 181325.527 251960.441 -426312.46 174352.016 675613.414   -609795.
                   -65818.417  675755.61 -600435.24  -75320.37  675755.61 -600435.24 -75320.369 -22.205269 -10.612862 32.8181314
                   -98.759974 -13.291578 112.051552        0.0   38.79507   1.075331   1.009316   9.628623   9.037524    .111681
                         360.    .046681    .024179    .317703    .330198   1.260348    .011579    .007506   10901.92   218.0383
                          1.0        1.0        0.0        0.0        0.0
 117500     .1175  302743.982 -412841.47 110097.493 302743.982 -412841.47 110097.493 302743.981 -412841.47 110097.494        0.0
                          0.0        0.0 298828.305 -410557.08 111728.778 303108.891 -414054.45 110945.554 709385.388 -522285.86
                   -187099.53 715585.456 -522938.97 -192646.49 715585.456 -522938.97 -192646.49 -80.205636  -5.655225 85.8608612
                   -90.350814 -25.371945 115.722817        0.0   38.79507   1.075331   1.009316   9.628623   9.037524    .111681
                         360.    .046681    .024179    .317703    .330198   1.260348    .011579    .007506   10901.92   218.0383
                          1.0        1.0        0.0        0.0        0.0
 118000      .118  352413.069 -393677.82 41264.7559 352413.069 -393677.82 41264.7559 352413.069 -393677.82  41264.756        0.0
                          0.0        0.0 354887.455 -394015.52 39128.0668 346793.795 -391601.04 44807.2447 748902.977 -433143.59
                   -315759.39 746090.894 -434942.58 -311148.31 746090.894 -434942.58 -311148.31  -23.52114 -14.303617 37.8247565
                   -80.791129 -36.891417 117.682517        0.0   38.79507   1.075331   1.009316   9.628623   9.037524    .111681
                         360.    .046681    .024179    .317703    .330198   1.260348    .011579    .007506   10901.92   218.0383
                          1.0        1.0        0.0        0.0        0.0
 118500     .1185  377306.583 -359390.35  -17916.23 377306.583 -359390.35  -17916.23 377306.582 -359390.35  -17916.23        0.0
                          0.0        0.0 374804.834 -360933.95 -13870.879 381939.485 -359505.12 -22434.368 735738.788 -347063.07
                   -388675.71 736696.935 -341474.12 -395222.81 736696.935 -341474.12 -395222.81 -59.743637 -11.532732 71.2763691
                   -69.970992 -47.607154  117.57811        0.0   38.79507   1.075331   1.009316   9.628623   9.037524    .111681
                         360.    .046681    .024179    .317703    .330198   1.260348    .011579    .007506   10901.92   218.0383
                          1.0        1.0        0.0        0.0        0.0
 119000      .119  412689.094 -320473.22 -92215.877 412689.094 -320473.22 -92215.877 412689.094 -320473.22 -92215.877        0.0
                          0.0        0.0 419670.344  -319862.2 -99808.146 407680.557 -318556.98 -89123.572 739532.541 -220054.05
                   -519478.49 733162.311 -228257.34 -504904.97 733162.311 -228257.34 -504904.97   -37.4459 -18.113719 55.5596185
                   -58.404647  -57.22064 115.625301        0.0   38.79507   1.075331   1.009316   9.628623   9.037524    .111681
                         360.    .046681    .024179    .317703    .330198   1.260348    .011579    .007506   10901.92   218.0383
                          1.0        1.0        0.0        0.0        0.0
 119500     .1195  414469.579 -268729.58   -145740. 414469.579 -268729.58   -145740. 414469.579 -268729.58   -145740.        0.0
                          0.0        0.0 414234.267 -269603.74 -144630.53  423383.18 -269764.92 -153618.26 683838.003 -124973.21
                    -558864.8 683199.161 -122989.58 -560209.58 683199.161 -122989.59 -560209.58 -27.341722 -19.969942  47.311664
                   -46.256535 -65.518132 111.774638        0.0   38.79507   1.075331   1.009316   9.628623   9.037524    .111681
                         360.    .046681    .024179    .317703    .330198   1.260348    .011579    .007506   10901.92   218.0383
                          1.0        1.0        0.0        0.0        0.0
  % % % % % %   Suspended simulation;  plot data space exhausted;  SPY SPACE is required.   LIMBUF =  840000.
  % % % % % %   Suspended simulation;  plot data space exhausted;  SPY SPACE is required.   LIMBUF =  840000.
  +++  Time-sharing disabled.   Send  user-keyed interrupt to silence alarm.
   Current values.  INDBUF  INDBEG  LIMBUF  MFLUSH  NUMDCD  KCARD1  KCARD2
                    839994      50  840000    1007     230       1     231
Plot timespan now in memory (in sec) = 1.04985997E-01   1.19985000E-01
   ++++  Begin plot-data copy from memory to disk.   MFLUSH, INDBUF, N4, Tbeg,  Tend = 1008  839994       1  -1.00000E+00
1.00000E+19
 120000       .12   429523.99 -211835.62 -217688.37  429523.99 -211835.62 -217688.37  429523.99 -211835.62 -217688.37        0.0
                          0.0        0.0 435625.262 -211362.67 -224262.59 428660.705 -214330.35 -214330.35 646987.933 12899.9205
                   -659887.85 641359.611 5852.74768 -647212.36 641359.611  5852.7475 -647212.36 -55.309831 -17.368481 72.6783116
                   -33.781853 -72.294325 106.076149        0.0   38.79507   1.075331   1.009316   9.628623   9.037524    .111681
                         360.    .046681    .024179    .317703    .330198   1.260348    .011579    .007506   10901.92   218.0383
                          1.0        1.0        0.0        0.0        0.0

Extrema of output variables follow.   Order and column positioning are the same as for the preceding time-step loop output.
Variable maxima :  445645.261 521762.963 440974.999 445645.261 521762.963 440974.999 445645.261 569664.291 440974.999        0.0
                          0.0        0.0 459955.516 539162.392 451936.619 428660.705 428660.703 428660.703 778850.344 778548.852
                   785755.562 769293.797 760681.882 763826.429 769293.797 822498.244 763826.429 41.5100865 647.082147 150.171324
                   39.6675395 74.9545353 136.114985        0.0   38.79507   1.075331   1.009316   9.628623   9.037524    .111681
                         360.    .046681    .024179    .317703    .330198   1.260348    .011579    .007506   10901.92   218.0383
                          1.0        1.0        0.0        0.0        0.0
Times of maxima :     .060217     .04726    .073092    .060217     .04726    .073092    .060217    .046996    .073092        0.0
                          0.0        0.0    .060336    .047136     .07301        0.0    .006667    .113333    .058635    .047134
                      .071285    .058506    .084868    .072192    .058506    .046995    .072192    .064484    .046951    .057879
                      .105011    .111613    .058257        0.0        0.0        0.0        0.0        0.0        0.0        0.0
                          0.0        0.0        0.0        0.0        0.0        0.0        0.0        0.0        0.0        0.0
                          0.0        0.0        0.0        0.0        0.0
Variable minima :  -441733.38 -439097.11  -441750.1 -441733.38 -439097.11  -441750.1 -441733.38 -439097.11  -441750.1        0.0
                          0.0        0.0 -456842.78 -439475.73 -455921.24 -428660.71  -428660.7  -428660.7 -839139.78 -770654.24
                   -799193.86 -828975.51 -762635.88 -768223.14  -886718.2 -762635.88 -768223.13 -352.70167 -118.72652 -306.28039
                   -132.16506 -83.593047 -36.713935        0.0   38.79507   1.075331   1.009316   9.628623   9.037524    .111681
                         360.    .046681    .024179    .317703    .330198   1.260348    .011579    .007506   10901.92   218.0383
                          1.0        1.0        0.0        0.0        0.0
Times of minima :     .069557    .056756    .062905    .069557    .056756    .062905    .069557    .056756    .062905        0.0
                          0.0        0.0    .070355    .056891    .062964        .01    .016667    .103333    .047137     .05469
                      .062043    .047261      .0546    .061211    .046998      .0546    .061211    .046952    .047319    .046846
                      .054858     .06156    .108325        0.0        0.0        0.0        0.0        0.0        0.0        0.0
                          0.0        0.0        0.0        0.0        0.0        0.0        0.0        0.0        0.0        0.0
                          0.0        0.0        0.0        0.0        0.0

Blank card terminating all plot cards.            |BLANK PLOT

Memory storage figures for the preceding, now-completed data case.  -------------------------------  Present   Program
A value of  "-9999"  indicates that no figure is available.         28-Feb-22  19:16:25              figure     limit  (name)
     Size List 1.   Number of electric network nodes.                                                   37      6000  (LBUS)
     Size List 2.   Number of electric network branches.                                                39     10000  (LBRNCH)
     Size List 3.   Number of data values in R, L, C tables.                                            45    192000  (LDATA)
     Size List 4.   Number of electric network sources.                                                  3       900  (LEXCT)
     Size List 5.   Storage for [Y] and triangularized [Y].   No. times =    3     Factors =    66     189    420000  (LYMAT)
     Size List 6.   Number of entries in switch table.                  No. flops = 18                  21      1200  (LSWTCH)
     Size List 7.   Number of distinct ALPHANUMERIC data names plus program SPY variables.              25     15000  (LSIZE7)
     Size List 8.   History points of distributed lines.                                               488    120000  (LPAST)
     Size List 9.   Number of nonlinear elements.                                                        0      2250  (LNONL)
     Size List 10.  Points of nonlinear characteristics.                                                 0      3800  (LCHAR)
     Size List 11.  Number of Type-59 S.M. outputs.                                                      0       720  (LSMOUT)
     Size List 12.  Total number of EMTP output variables.                                              55      2000  (LSIZ12)
     Size List 13.  Working space for batch/SPY plotting.                                            -9999     72800  (LSIZ13)
     Size List 14.  S.M./U.M. connections to TACS.                                                   -9999       510  (LBSTAC)
     Size List 15.  Character storage in bytes for MODELS.                                            3298     90000  (LCTACS)
     Size List 16.  Total number of Type-59 S.M. masses.                                                 0       800  (LIMASS)
     Size List 17.  Number of Type-59 Synchronous machines.                                              0        90  (LSYN)
     Size List 18.  Branch and switch power/energy outputs.                                              0       254  (MAXPE)
     Size List 19.  Total floating-point TACS table space.                                              23    120000  (LTACST)
     Size List 20.  Non-copied recursive convolution data.                                               0    100000  (LFSEM)
     Size List 21.  Total modal/phase [T] matrix storage.                                                9      3000  (LFD)
     Size List 22.  Total recursive convolution history.                                                 0     15000  (LHIST)
     Size List 23.  Giant vectors for renumbering, phasors;  also extrema accumulation.                  93    192000  (LSIZ23)
     Size List 24.  Peak phases of compensation for data.                                                0       120  (LCOMP)
     Size List 25.  Total table space for all U.M usage.                                             -9999     45000  (LSPCUM)
     Size List 26.  Square of max number of coupled phases.                                              9    260000  (LSIZ26)
     Size List 27.  Maximum number of MODELS top variables.                                             44       600  (LSIZ27)
     Size List 28.  MODELS.  Total work space is divided into INTEGER and REAL.  1st, REAL:           1780    210000  (LRTACS)
                             Second  and last,  statistics for INTEGER work space.                    6838         0  (LITACS)
     Size List 29.  RAM disk used by "TAPSAV" table saving (limit is "LABCOM" size LTLABL).          -9999       600  (LSIZ29)
     Size List 30.  Taku Noda frequency-dependent circuits.                                              0        19  (LSIZ30)
Timing figures characterizing central processor (CP) solution speed.  ----------------------------   CP sec  Wait sec  Real sec
     Data input time (through blank card ending branches) ....                                       0.047     0.000     0.047
     Node renumbering and phasor solution  ....                                                      0.047     0.000     0.047
     After phasor solution, but before time-step loop  ....                                          0.000     0.000     0.000
     Integration of equations (time-step loop)  ....                                                 1.281     0.000     1.281
     Plotting or STATISTICS termination overlays ....                                                0.016     0.000     0.016
                                                                                                    ---------------------------
                                                                                          Totals      1.391     0.000     1.391

