   ---   236   cards of disk file read into card cache cells  1   onward.
 Comment card is ignored.      |C   LBUS  LBRNCH   LDATA   LEXCT   LYMAT  LSWTCH
 Limit CIDEAL cards =   200    |CARDS        200 { Limit of CIDEAL will be 2 mor
 1st card (Lists  1-10).       |    6000   10000  192000     900  420000    120
 Comment card is ignored.      |C LSMOUT  LSIZ12  LSIZ13  LBSTAC  LCTACS  LIMASS
 2nd card (Lists 11-20).       |     720    2000   72800     510   90000     80
 Comment card is ignored.      |C    LFD   LHIST  LSIZ23   NCOMP  LSPCUM  LSIZ26
 3rd card (Lists 21-30).       |    3000   15000  192000     120   45000  26000
 4th card (Lists 31-32).       |     200     300     { Optional card for Lists
 Comment card is ignored.      |C  LWORK  LMARTI
 Supplemental offsets.         |  840000     742
 <===> Done with  "/"-card sorting by data class.    Remember that the source file appears different from interpreted input data.
Alternative Transients Program (ATP),  GNU Linux or DOS.  All rights reserved by Can/Am user group of Portland, Oregon, USA.
 Date (dd-mth-yy) and time of day (hh.mm.ss) = 28-Feb-22  19:04:38   Name of disk plot file is  atp\bdfinalisima\energizacion89.pl4
Consult the 860-page ATP Rule Book of the Can/Am EMTP User Group in Portland,  Oregon, USA.  Source code date is 12 August 2008.
Total size of LABCOM tables = 10913436 INTEGER words.  31 VARDIM  List Sizes follow:  6002  10K  192K  900  420K  1200  15K
  120K  2250  3800  720  2K  72800  510  90K  800  90  254  120K  100K  3K  15K  192K  120  45K  260K  600  210K  1100  60  200
--------------------------------------------------+--------------------------------------------------------------------------------
Descriptive interpretation of input data cards.   |  Input data card images are shown below, all 80 columns, character by character
                                                  0         1         2         3         4         5         6         7         8
                                                  012345678901234567890123456789012345678901234567890123456789012345678901234567890
--------------------------------------------------+--------------------------------------------------------------------------------
Comment card.   NUMDCD = 1.                       |C data:D:\ATP\BDFINALISIMA\ENERGIZACION89.ATP
Marker card preceding new EMTP data case.         |BEGIN NEW DATA CASE
Comment card.   NUMDCD = 3.                       |C --------------------------------------------------------
Comment card.   NUMDCD = 4.                       |C Generated by ATPDRAW  febrero, lunes 28, 2022
Comment card.   NUMDCD = 5.                       |C A Bonneville Power Administration program
Comment card.   NUMDCD = 6.                       |C by H. K. Høidalen at SEfAS/NTNU - NORWAY 1994-2016
Comment card.   NUMDCD = 7.                       |C --------------------------------------------------------
Comment card.   NUMDCD = 8.                       |C  dT  >< Tmax >< Xopt >< Copt ><Epsiln>
Misc. data.     1.000E-06   1.200E-01   5.000E+01 |   1.E-6     .12     50.
Misc. data.    500    1  0  1  1  0  0  0  0  0   |     500       1       0       1       1       0       0       0       0
  ///  Warning.  Nonzero XOPT or COPT differs from the power frequency of  6.00000000E+01  Hz.   Did the user really want this?
No TACS data,  but MODELS data begins (next).     |MODELS
      Another ordinary MODELS data card.          |OUTPUT
      Another ordinary MODELS data card.          |  AnVol
      Another ordinary MODELS data card.          |  LONG
      Another ordinary MODELS data card.          |  R0F
      Another ordinary MODELS data card.          |  R1F
      Another ordinary MODELS data card.          |  X0F
      Another ordinary MODELS data card.          |  X1F
      Another ordinary MODELS data card.          |  RDIVX
      Another ordinary MODELS data card.          |  RINSER
      Another ordinary MODELS data card.          |  CLOSE1
      Another ordinary MODELS data card.          |  RPpos
      Another ordinary MODELS data card.          |  RPcero
      Another ordinary MODELS data card.          |  LPpos
      Another ordinary MODELS data card.          |  LPcero
      Another ordinary MODELS data card.          |  CPpos
      Another ordinary MODELS data card.          |  CPcero
      Another ordinary MODELS data card.          |  Xp
      Another ordinary MODELS data card.          |  CR
      Another ordinary MODELS data card.          |  SIMET
      Another ordinary MODELS data card.          |  ENC1
      Another ordinary MODELS data card.          |  ENC2
      Another ordinary MODELS data card.          |  ENC1AS
      Another ordinary MODELS data card.          |  ENC2AS
      Another ordinary MODELS data card.          |MODEL DEFAULT
      Another ordinary MODELS data card.          |DATA AnVol,LONG,R0F,R1F,X0F,X1F,RDIVX,RINSER,CLOSE1,RPpos,RPcero,LPpos,LPcero
      Another ordinary MODELS data card.          |OUTPUT o1,o2,o3, o4, o5, o6, o7, o8, o9, o10, o11, o12, o13
      Another ordinary MODELS data card.          |VAR o1,o2,o3, o4, o5, o6, o7, o8, o9, o10, o11, o12, o13
      Another ordinary MODELS data card.          |INIT
      Another ordinary MODELS data card.          |  o1:=AnVol
      Another ordinary MODELS data card.          |  o2:=LONG
      Another ordinary MODELS data card.          |  o3:=R0F
      Another ordinary MODELS data card.          |  o4:=R1F
      Another ordinary MODELS data card.          |  o5:=X0F
      Another ordinary MODELS data card.          |  O6:=X1F
      Another ordinary MODELS data card.          |  o7:=RDIVX
      Another ordinary MODELS data card.          |  o8:=RINSER
      Another ordinary MODELS data card.          |  o9:=CLOSE1
      Another ordinary MODELS data card.          |  o10:=RPpos
      Another ordinary MODELS data card.          |  o11:=RPcero
      Another ordinary MODELS data card.          |  o12:=LPpos
      Another ordinary MODELS data card.          |  o13:=LPcero
      Another ordinary MODELS data card.          |
      Another ordinary MODELS data card.          |ENDINIT
      Another ordinary MODELS data card.          |EXEC
      Another ordinary MODELS data card.          |ENDEXEC
      Another ordinary MODELS data card.          |ENDMODEL
      Another ordinary MODELS data card.          |MODEL DEFAULT1
      Another ordinary MODELS data card.          |DATA CPpos,CPcero,Xp,CR,SIMET,ENC1,ENC2,ENC1AS,ENC2AS
      Another ordinary MODELS data card.          |OUTPUT o1, o2, o3, o4, o5, o6, o7, o8, o9
      Another ordinary MODELS data card.          |VAR o1, o2, o3, o4, o5, o6, o7, o8, o9
      Another ordinary MODELS data card.          |INIT
      Another ordinary MODELS data card.          |  o1:=CPpos
      Another ordinary MODELS data card.          |  o2:=CPcero
      Another ordinary MODELS data card.          |  o3:=Xp
      Another ordinary MODELS data card.          |  o4:=CR
      Another ordinary MODELS data card.          |  o5:=SIMET
      Another ordinary MODELS data card.          |  o6:=ENC1
      Another ordinary MODELS data card.          |  o7:=ENC2
      Another ordinary MODELS data card.          |  o8:=ENC1AS
      Another ordinary MODELS data card.          |  o9:=ENC2AS
      Another ordinary MODELS data card.          |
      Another ordinary MODELS data card.          |ENDINIT
      Another ordinary MODELS data card.          |EXEC
      Another ordinary MODELS data card.          |ENDEXEC
      Another ordinary MODELS data card.          |ENDMODEL
      Another ordinary MODELS data card.          |USE DEFAULT AS DEFAULT
      Another ordinary MODELS data card.          |DATA
      Another ordinary MODELS data card.          |  AnVol:=      0.0
      Another ordinary MODELS data card.          |  LONG:= 348.5778
      Another ordinary MODELS data card.          |  R0F:= 0.703515
      Another ordinary MODELS data card.          |  R1F:= 0.650634
      Another ordinary MODELS data card.          |  X0F:= 6.776926
      Another ordinary MODELS data card.          |  X1F:= 6.267524
      Another ordinary MODELS data card.          |  RDIVX:=  0.10381
      Another ordinary MODELS data card.          |  RINSER:=     380.
      Another ordinary MODELS data card.          |  CLOSE1:= 0.057351
      Another ordinary MODELS data card.          |  RPpos:= 0.019138
      Another ordinary MODELS data card.          |  RPcero:= 0.289657
      Another ordinary MODELS data card.          |  LPpos:= 0.361285
      Another ordinary MODELS data card.          |  LPcero:= 0.996665
      Another ordinary MODELS data card.          |OUTPUT
      Another ordinary MODELS data card.          |  AnVol:=o1
      Another ordinary MODELS data card.          |  LONG:=o2
      Another ordinary MODELS data card.          |  R0F:=o3
      Another ordinary MODELS data card.          |  R1F:=o4
      Another ordinary MODELS data card.          |  X0F:=o5
      Another ordinary MODELS data card.          |  X1F:=o6
      Another ordinary MODELS data card.          |  RDIVX:=o7
      Another ordinary MODELS data card.          |  RINSER:=o8
      Another ordinary MODELS data card.          |  CLOSE1:=o9
      Another ordinary MODELS data card.          |  RPpos:=o10
      Another ordinary MODELS data card.          |  RPcero:=o11
      Another ordinary MODELS data card.          |  LPpos:=o12
      Another ordinary MODELS data card.          |  LPcero:=o13
      Another ordinary MODELS data card.          |ENDUSE
      Another ordinary MODELS data card.          |USE DEFAULT1 AS DEF
      Another ordinary MODELS data card.          |DATA
      Another ordinary MODELS data card.          |  CPpos:=   0.0116
      Another ordinary MODELS data card.          |  CPcero:= 0.007433
      Another ordinary MODELS data card.          |  Xp:= 1211.046
      Another ordinary MODELS data card.          |  CR:= 24.22092
      Another ordinary MODELS data card.          |  SIMET:=      0.0
      Another ordinary MODELS data card.          |  ENC1:=      0.0
      Another ordinary MODELS data card.          |  ENC2:=      0.0
      Another ordinary MODELS data card.          |  ENC1AS:=      0.0
      Another ordinary MODELS data card.          |  ENC2AS:=       1.
      Another ordinary MODELS data card.          |OUTPUT
      Another ordinary MODELS data card.          |  CPpos:=o1
      Another ordinary MODELS data card.          |  CPcero:=o2
      Another ordinary MODELS data card.          |  Xp:=o3
      Another ordinary MODELS data card.          |  CR:=o4
      Another ordinary MODELS data card.          |  SIMET:=o5
      Another ordinary MODELS data card.          |  ENC1:=o6
      Another ordinary MODELS data card.          |  ENC2:=o7
      Another ordinary MODELS data card.          |  ENC1AS:=o8
      Another ordinary MODELS data card.          |  ENC2AS:=o9
      Another ordinary MODELS data card.          |ENDUSE
      Another ordinary MODELS data card.          |RECORD
      Another ordinary MODELS data card.          |  DEFAULT.o1 AS AnVOL
      Another ordinary MODELS data card.          |  DEFAULT.o2 AS LONG
      Another ordinary MODELS data card.          |  DEFAULT.o3 AS R0F
      Another ordinary MODELS data card.          |  DEFAULT.o4 AS R1F
      Another ordinary MODELS data card.          |  DEFAULT.o5 AS X0F
      Another ordinary MODELS data card.          |  DEFAULT.o6 AS X1F
      Another ordinary MODELS data card.          |  DEFAULT.o7 AS RDIVX
      Another ordinary MODELS data card.          |  DEFAULT.o8 AS RINSER
      Another ordinary MODELS data card.          |  DEFAULT.o9 AS CLOSE1
      Another ordinary MODELS data card.          |  DEFAULT.o10 AS RPpos
      Another ordinary MODELS data card.          |  DEFAULT.o11 AS RPcero
      Another ordinary MODELS data card.          |  DEFAULT.o12 AS LPpos
      Another ordinary MODELS data card.          |  DEFAULT.o13 AS LPcero
      Another ordinary MODELS data card.          |  DEF.o1 AS CPpos
      Another ordinary MODELS data card.          |  DEF.o2 AS CPcero
      Another ordinary MODELS data card.          |  DEF.o3 AS Xp
      Another ordinary MODELS data card.          |  DEF.o4 AS CR
      Another ordinary MODELS data card.          |  DEF.o5 AS SIMET
      Another ordinary MODELS data card.          |  DEF.o6 AS ENC1
      Another ordinary MODELS data card.          |  DEF.o7 AS ENC2
      Another ordinary MODELS data card.          |  DEF.o8 AS ENC1AS
      Another ordinary MODELS data card.          |  DEF.o9 AS ENC2AS
Termination of data for Laurent Dube`s MODELS.    |ENDMODELS
Comment card.   NUMDCD = 153.                     |C        1         2         3         4         5         6         7         8
Comment card.   NUMDCD = 154.                     |C 345678901234567890123456789012345678901234567890123456789012345678901234567890
Optional blank card follows last of MODELS data.  |BLANK MODELS
Comment card.   NUMDCD = 156.                     |C < n1 >< n2 ><ref1><ref2>< R  >< L  >< C  >
Comment card.   NUMDCD = 157.                     |C < n1 >< n2 ><ref1><ref2>< R  >< A  >< B  ><Leng><><>0
1st of coupled R-L.   7.03520E-01  2.15716E-02    |51IFUENASB1A              .703526.7769256522
2nd coil. 6.506E-01 1.995E-02 0.000E+00 0.000E+00 |52IFUENBSB1B              .650636.2675239701
Zca, Zcc= 1.763E-02 5.405E-04 6.683E-01 2.049E-02 |53IFUENCSB1C
Series R-L-C.   1.000E+09  0.000E+00  0.000E+00   |  SB1A                      1.E9                                               0
Series R-L-C.   1.000E+09  0.000E+00  0.000E+00   |  SB1B                      1.E9                                               0
Series R-L-C.   1.000E+09  0.000E+00  0.000E+00   |  SB1C                      1.E9                                               0
Series R-L-C.   1.000E+09  0.000E+00  0.000E+00   |  RSNSHA                    1.E9                                               0
Series R-L-C.   1.000E+09  0.000E+00  0.000E+00   |  RSNSHB                    1.E9                                               0
Series R-L-C.   1.000E+09  0.000E+00  0.000E+00   |  RSNSHC                    1.E9                                               0
Series R-L-C.   2.422E+01  3.855E+00  0.000E+00   |  RSNNHA                  24.221 1211.                                         0
Series R-L-C.   2.422E+01  3.855E+00  0.000E+00   |  RSNNHB                  24.221 1211.                                         0
Series R-L-C.   2.422E+01  3.855E+00  0.000E+00   |  RSNNHC                  24.221 1211.                                         0
Series R-L-C.   1.000E+09  0.000E+00  0.000E+00   |  SE2A                      1.E9                                               0
Series R-L-C.   1.000E+09  0.000E+00  0.000E+00   |  SE2B                      1.E9                                               0
Series R-L-C.   1.000E+09  0.000E+00  0.000E+00   |  SE2C                      1.E9                                               0
Series R-L-C.   2.500E+02  0.000E+00  3.000E-10   |  X0001B                    250.       .0003                                   0
Series R-L-C.   2.500E+02  0.000E+00  3.000E-10   |  X0002B                    250.       .0003                                   0
Series R-L-C.   1.000E-06  0.000E+00  0.000E+00   |  X0001ALN1A               1.E-6                                               0
Series R-L-C.   1.000E-06  0.000E+00  0.000E+00   |  SB1A  X0002A             1.E-6                                               0
Series R-L-C.   1.000E-06  0.000E+00  0.000E+00   |  X0001BLN1B               1.E-6                                               0
Series R-L-C.   1.000E-06  0.000E+00  0.000E+00   |  SB1B  X0002B             1.E-6                                               0
Series R-L-C.   1.000E-06  0.000E+00  0.000E+00   |  X0001CLN1C               1.E-6                                               0
Series R-L-C.   1.000E-06  0.000E+00  0.000E+00   |  SB1C  X0002C             1.E-6                                               0
Series R-L-C.   3.800E+02  0.000E+00  0.000E+00   |  XX0005X0002A              380.                                               0
Series R-L-C.   3.800E+02  0.000E+00  0.000E+00   |  XX0003X0002B              380.                                               0
Series R-L-C.   3.800E+02  0.000E+00  0.000E+00   |  XX0004X0002C              380.                                               0
Series R-L-C.   2.500E+02  0.000E+00  3.000E-10   |  X0001A                    250.       .0003                                   0
Series R-L-C.   1.000E+06  0.000E+00  0.000E+00   |  X0001AX0002A              1.E6                                               0
Series R-L-C.   1.000E+06  0.000E+00  0.000E+00   |  X0001BX0002B              1.E6                                               0
Series R-L-C.   1.000E+06  0.000E+00  0.000E+00   |  X0001CX0002C              1.E6                                               0
Series R-L-C.   2.500E+02  0.000E+00  3.000E-10   |  X0002C                    250.       .0003                                   0
Series R-L-C.   2.500E+02  0.000E+00  3.000E-10   |  X0002A                    250.       .0003                                   0
Series R-L-C.   2.500E+02  0.000E+00  3.000E-10   |  X0001C                    250.       .0003                                   0
Series R-L-C.   1.250E+02  0.000E+00  6.000E-10   |  X0001AX0002A              125.       .0006                                   0
Series R-L-C.   1.250E+02  0.000E+00  6.000E-10   |  X0001BX0002B              125.       .0006                                   0
Series R-L-C.   1.250E+02  0.000E+00  6.000E-10   |  X0001CX0002C              125.       .0006                                   0
 2.897E-01 9.967E-01 7.430E-03 6.534E+02 1.692E-03|-1LN1A  VFF2A             .28966.99667.00743348.58 0 0                         0
 1.914E-02 3.613E-01 1.160E-02 3.149E+02 1.273E-03|-2LN1B  VFF2B             .01914.36128 .0116348.58 0 0                         0
3rd or later transposed distributed phase.        |-3LN1C  VFF2C                                                                  0
Blank card ending branches.  IBR, NTOT = 39  31   |BLANK BRANCH
Comment card.   NUMDCD = 198.                     |C < n 1>< n 2>< Tclose ><Top/Tde ><   Ie   ><Vf/CLOP ><  type  >
Switch.  -1.00E+00  1.00E+01  0.00E+00  0.00E+00  |  LN1A  COMPA        -1.       10.                                             0
Switch.  -1.00E+00  1.00E+01  0.00E+00  0.00E+00  |  LN1B  COMPB        -1.       10.                                             0
Switch.  -1.00E+00  1.00E+01  0.00E+00  0.00E+00  |  LN1C  COMPC        -1.       10.                                             0
Switch.  -1.00E+00  1.00E+01  0.00E+00  0.00E+00  |  VFF2A RSNNHA       -1.       10.                                             0
Switch.  -1.00E+00  1.00E+01  0.00E+00  0.00E+00  |  VFF2B RSNNHB       -1.       10.                                             0
Switch.  -1.00E+00  1.00E+01  0.00E+00  0.00E+00  |  VFF2C RSNNHC       -1.       10.                                             0
Switch.   2.00E+00 -1.00E+00  0.00E+00  0.00E+00  |  VFF2A SE2A          2.       -1.                                             0
Switch.   2.00E+00 -1.00E+00  0.00E+00  0.00E+00  |  VFF2B SE2B          2.       -1.                                             0
Switch.   2.00E+00 -1.00E+00  0.00E+00  0.00E+00  |  VFF2C SE2C          2.       -1.                                             0
Switch.   5.74E-02  1.00E+03  0.00E+00  0.00E+00  |  X0001BXX0003.057350583      1.E3                                             0
Switch.   5.74E-02  1.00E+03  0.00E+00  0.00E+00  |  X0001CXX0004.057350583      1.E3                                             0
Switch.   6.49E-02  1.00E+03  0.00E+00  0.00E+00  |  XX0005X0002A.064850583      1.E3                                             0
Switch.   6.49E-02  1.00E+03  0.00E+00  0.00E+00  |  XX0003X0002B.064850583      1.E3                                             0
Switch.   6.49E-02  1.00E+03  0.00E+00  0.00E+00  |  XX0004X0002C.064850583      1.E3                                             0
Switch.   5.74E-02  1.00E+03  0.00E+00  0.00E+00  |  X0001AXX0005.057350583      1.E3                                             0
Permanently-closed switch used for metering.      |  VFUENAIFUENA                                        MEASURING                1
Permanently-closed switch used for metering.      |  VFUENBIFUENB                                        MEASURING                1
Permanently-closed switch used for metering.      |  VFUENCIFUENC                                        MEASURING                1
Permanently-closed switch used for metering.      |  COMPA RSNSHA                                        MEASURING                1
Permanently-closed switch used for metering.      |  COMPB RSNSHB                                        MEASURING                1
Permanently-closed switch used for metering.      |  COMPC RSNSHC                                        MEASURING                1
Blank card ending switches.   KSWTCH = 21.        |BLANK SWITCH
Comment card.   NUMDCD = 221.                     |C < n 1><>< Ampl.  >< Freq.  ><Phase/T0><   A1   ><   T1   >< TSTART >< TSTOP  >
Source.   4.29E+05  5.00E+01  0.00E+00 -1.00E+00  |14VFUENA  428660.705       50.                                     -1.      100.
Source.   4.29E+05  5.00E+01 -1.20E+02 -1.00E+00  |14VFUENB  428660.705       50.     -120.                           -1.      100.
Source.   4.29E+05  5.00E+01 -2.40E+02 -1.00E+00  |14VFUENC  428660.705       50.     -240.                           -1.      100.
Blank card ends electric sources.  KCONST = 3     |BLANK SOURCE
Pi-equivalent branches of distributed circuits are added to the table of List Size 3 between indices  40   and  45.

Sinusoidal steady-state phasor solution, branch by branch.   All flows are away from a bus,  and the real part,  magnitude,  or  "P"
is printed above the imaginary part,  the angle,  or  "Q".   The first solution frequency  =  5.00000000E+01  Hertz.
  Bus K                        Phasor  node  voltage              Phasor  branch  current               Power flow       Power loss
             Bus M         Rectangular            Polar          Rectangular            Polar            P  and  Q        P  and  Q

 IFUENA                    428660.705       428660.705      .42868042533638  .44572185375374      91879.226672195  .06462967095798
                                  0.0              0.0      .12206991376703       15.8946942      -26163.28764733        0.6225781

            SB1A      428661.19116377  428661.19117269      -.4286804253364  .44572185375374      -91879.16204252
                      -2.766187189301       -0.0003697       -.122069913767     -164.1053058      26163.910225468

 IFUENB                  -214330.3525       428660.705      -.1086245663026  .44572185374988      91879.226671118  .06462967095701
                      -371231.0601341     -120.0000000      -.4322830953274     -104.1053058      -26163.28764809        0.6225781

            SB1B      -214332.9911703  428661.19117269      .10862456630257  .44572185374988      -91879.16204145
                      -371230.0980707     -120.0003697      .43228309532736       75.8946942      26163.910226229

 IFUENC                  -214330.3525       428660.705      -.3200558590445  .44572185375686      91879.226671659  .06462967095814
                      371231.06013415      120.0000000      .31021318155063      135.8946942      -26163.28765166        0.6225781

            SB1C      -214328.1999935  428661.19117269      .32005585904446  .44572185375686      -91879.16204199
                      371232.86425791      119.9996303      -.3102131815506      -44.1053058      26163.910229798

 SB1A                 428661.19116377  428661.19117269      .42866119116E-3  .42866119117E-3      91.875208408795  91.875208408795
                      -2.766187189301       -0.0003697      -.2766187189E-8       -0.0003697      .1069379096E-19        0.0000000

            TERRA                 0.0              0.0      -.4286611912E-3  .42866119117E-3                  0.0
                                  0.0              0.0      .27661871893E-8      179.9996303                  0.0

 SB1B                 -214332.9911703  428661.19117269      -.2143329912E-3  .42866119117E-3      91.875208408795  91.875208408795
                      -371230.0980707     -120.0003697      -.3712300981E-3     -120.0003697      -.131838984E-15        0.0000000

            TERRA                 0.0              0.0      .21433299117E-3  .42866119117E-3                  0.0
                                  0.0              0.0      .37123009807E-3       59.9996303                  0.0

 SB1C                 -214328.1999935  428661.19117269         -.2143282E-3  .42866119117E-3      91.875208408795  91.875208408795
                      371232.86425791      119.9996303      .37123286426E-3      119.9996303      .1595945598E-14        0.0000000

            TERRA                 0.0              0.0      .21432819999E-3  .42866119117E-3                  0.0
                                  0.0              0.0      -.3712328643E-3      -60.0003697                  0.0

 RSNSHA               209.10621680899  934.68833968998      .20910621681E-6  .93468833969E-6      .43682114618E-3  .43682114618E-3
                      -910.9977400873      -77.0725211      -.9109977401E-6      -77.0725211      .1006513369E-19        0.0000000

            TERRA                 0.0              0.0      -.2091062168E-6  .93468833969E-6                  0.0
                                  0.0              0.0      .91099774009E-6      102.9274789                  0.0

 RSNSHB               -893.5002941103  934.68833968998      -.8935002941E-6  .93468833969E-6      .43682114618E-3  .43682114618E-3
                      274.40757419782      162.9274789       .2744075742E-6      162.9274789      -.978058356E-20        0.0000000

            TERRA                 0.0              0.0      .89350029411E-6  .93468833969E-6                  0.0
                                  0.0              0.0      -.2744075742E-6      -17.0725211                  0.0

 RSNSHC               684.39407730135  934.68833968998       .6843940773E-6  .93468833969E-6      .43682114618E-3  .43682114618E-3
                      636.59016588951       42.9274789      .63659016589E-6       42.9274789      -.163186191E-19        0.0000000

            TERRA                 0.0              0.0      -.6843940773E-6  .93468833969E-6                  0.0
                                  0.0              0.0      -.6365901659E-6     -137.0725211                  0.0

 RSNNHA               203.68367268109  914.22419548019      -.7323014619575   .7547823207154      6.8993076668332  6.8993076668332
                      -891.2456681996      -77.1268083      -.1828412439233     -165.9809981      344.95114093287      344.9511409

            TERRA                 0.0              0.0       .7323014619575   .7547823207154                  0.0
                                  0.0              0.0      .18284124392334       14.0190019                  0.0

 RSNNHB               -873.6832260142  914.22419548019      .20780556888159   .7547823207154      6.8993076668332  6.8993076668332
                      269.22759922186      162.8731917      .72561229124535       74.0190019      344.95114093287      344.9511409

            TERRA                 0.0              0.0      -.2078055688816   .7547823207154                  0.0
                                  0.0              0.0      -.7256122912453     -105.9809981                  0.0

 RSNNHC               669.99955333314  914.22419548019      .52449589307591   .7547823207154      6.8993076668332  6.8993076668332
                      622.01806897774       42.8731917       -.542771047322      -45.9809981      344.95114093287      344.9511409

            TERRA                 0.0              0.0      -.5244958930759   .7547823207154                  0.0
                                  0.0              0.0      .54277104732201      134.0190019                  0.0

 X0001B               -893.5002942537  934.68833970619      -.2586428868E-4  .88092300618E-4      .97003167852E-6  .97003167852E-6
                      274.40757378617      162.9274790       -.842098094E-4     -107.0738710      -.0411694230914       -0.0411694

            TERRA                 0.0              0.0      .25864288684E-4  .88092300618E-4                  0.0
                                  0.0              0.0      .84209809399E-4       72.9261290                  0.0

 X0002B               -214332.9911702  428661.19117226      .03498713648634  .04040036546076      .20402369117073  .20402369117073
                      -371230.0980703     -120.0003697      -.0202012328794      -30.0017197      -8659.034388699    -8659.0343887

            TERRA                 0.0              0.0      -.0349871364863  .04040036546076                  0.0
                                  0.0              0.0      .02020123287944      149.9982803                  0.0

 X0001A               209.10621723719  934.68833970619      .42819692680496  .43591202504987      7.5779403858204  .95009646792E-7
                      -910.9977400057      -77.0725210      .08164977316483       10.7957188      -203.5799539007        0.0000000

            LN1A      209.10621680899  934.68833968998       -.428196926805  .43591202504987      -7.577940290811
                      -910.9977400873      -77.0725211      -.0816497731648     -169.2042812      203.57995390073

 SB1A                 428661.19116377  428661.19117269      .42829196900129  .44534826282388      91795.903964865  .99167536405E-7
                      -2.766187189301       -0.0003697      .12206991639729       15.9083815      -26163.91025194        0.0000000

            X0002A    428661.19116334  428661.19117226      -.4282919690013  .44534826282388      -91795.90396477
                      -2.766187311371       -0.0003697      -.1220699163973     -164.0916185      26163.910251942

 X0001B               -893.5002942537  934.68833970619      -.1433876377632  .43591205843997      7.5779118632676  .95009661347E-7
                      274.40757378617      162.9274790      -.4116543550481     -109.2042730      -203.5799705779              0.0

            LN1B      -893.5002941103  934.68833968998      .14338763776323  .43591205843997      -7.577911768258
                      274.40757419782      162.9274789      .41165435504809       70.7957270      203.57997057792

 SB1B                 -214332.9911703  428661.19117269      -.1084117684513  .44529928202007      91785.405638493  .99145715637E-7
                      -371230.0980707     -120.0003697      -.4319008439779     -104.0907373      -26162.44417227              0.0

            X0002B    -214332.9911702  428661.19117226      .10841176845133  .44529928202007      -91785.40563839
                      -371230.0980703     -120.0003697      .43190084397793       75.9092627       26162.44417227

 X0001C               684.39407701654  934.68833970619      -.2848092890417  .43591209571243      7.5779405674067  .95009677591E-7
                      636.59016621952       42.9274790      .33000458188326      130.7957191      -203.5799869406              0.0

            LN1C      684.39407730135  934.68833968998      .28480928904173  .43591209571243      -7.577940472397
                      636.59016588951       42.9274789      -.3300045818833      -49.2042809      203.57998694058

 SB1C                 -214328.1999935  428661.19117269      -.3198510967195  .44531468073492      91787.834983819   .9915257948E-7
                      371232.86425791      119.9996303      .30983937904239      135.9108933      -26165.96118698              0.0

            X0002C    -214328.1999932  428661.19117226       .3198510967195  .44531468073492      -91787.83498372
                       371232.8642576      119.9996303      -.3098393790424      -44.0891067      26165.961186978

 XX0005               428661.19116334  428661.19117226                  0.0              0.0                  0.0              0.0
                      -2.766187311371       -0.0003697                  0.0              0.0                  0.0              0.0

            X0002A    428661.19116334  428661.19117226                  0.0              0.0                  0.0
                      -2.766187311371       -0.0003697                  0.0              0.0                  0.0

 XX0003               -214332.9911702  428661.19117226                  0.0              0.0                  0.0              0.0
                      -371230.0980703     -120.0003697                  0.0              0.0                  0.0              0.0

            X0002B    -214332.9911702  428661.19117226                  0.0              0.0                  0.0
                      -371230.0980703     -120.0003697                  0.0              0.0                  0.0

 XX0004               -214328.1999932  428661.19117226                  0.0              0.0                  0.0              0.0
                       371232.8642576      119.9996303                  0.0              0.0                  0.0              0.0

            X0002C    -214328.1999932  428661.19117226                  0.0              0.0                  0.0
                       371232.8642576      119.9996303                  0.0              0.0                  0.0

 X0001A               209.10621723719  934.68833970619       .8585997853E-4  .88092300618E-4      .97003167852E-6  .97003167852E-6
                      -910.9977400057      -77.0725210      .19705773649E-4       12.9261290      -.0411694230914       -0.0411694

            TERRA                 0.0              0.0      -.8585997853E-4  .88092300618E-4                  0.0
                                  0.0              0.0      -.1970577365E-4     -167.0738710                  0.0

 X0001A               209.10621723719  934.68833970619      -.4284520849461  .42845304757839      -44.38229892928  91786.006989607
                      -910.9977400057      -77.0725210      -.9082315527E-3     -179.8785447      195.25439897549        0.0000000

            X0002A    428661.19116334  428661.19117226       .4284520849461  .42845304757839      91830.389288536
                      -2.766187311371       -0.0003697      .90823155269E-3        0.1214553      -195.2543989755

 X0001B               -893.5002942537  934.68833970619       .2134394908759  .42845304757839      -44.38229892928  91786.006989607
                      274.40757378617      162.9274790      .37150450564408       60.1214553      195.25439897549        0.0000000

            X0002B    -214332.9911702  428661.19117226      -.2134394908759  .42845304757839      91830.389288536
                      -371230.0980703     -120.0003697      -.3715045056441     -119.8785447      -195.2543989755

 X0001C               684.39407701654  934.68833970619       .2150125940702  .42845304757839      -44.38229892928  91786.006989607
                      636.59016621952       42.9274790      -.3705962740914      -59.8785447      195.25439897549        0.0000000

            X0002C    -214328.1999932  428661.19117226      -.2150125940702  .42845304757839      91830.389288536
                       371232.8642576      119.9996303      .37059627409138      120.1214553      -195.2543989755

 X0002C               -214328.1999932  428661.19117226      -.0349883491045  .04040036546076      .20402369116996  .20402369116996
                       371232.8642576      119.9996303      -.0201991325631     -150.0017197      -8659.034388699    -8659.0343887

            TERRA                 0.0              0.0      .03498834910453  .04040036546076                  0.0
                                  0.0              0.0      .02019913256312       29.9982803                  0.0

 X0002A               428661.19116334  428661.19117226      .12126181967E-5  .04040036546076      .20402369117038  .20402369117038
                      -2.766187311371       -0.0003697      .04040036544256       89.9982803      -8659.034388699    -8659.0343887

            TERRA                 0.0              0.0      -.1212618197E-5  .04040036546076                  0.0
                                  0.0              0.0      -.0404003654426      -90.0017197                  0.0

 X0001C               684.39407701654  934.68833970619      -.5999568985E-4  .88092300618E-4      .97003167852E-6  .97003167852E-6
                      636.59016621952       42.9274790      .64504035751E-4      132.9261290      -.0411694230914       -0.0411694

            TERRA                 0.0              0.0      .59995689846E-4  .88092300618E-4                  0.0
                                  0.0              0.0      -.6450403575E-4      -47.0738710                  0.0

 X0001A               209.10621723719  934.68833970619      .16929472067E-3  .08076149677841      36.804389987637  .40765121011806
                      -910.9977400057      -77.0725210      -.0807613193378      -89.8798947      8.3667334389482   -17301.2547060

            X0002A    428661.19116334  428661.19117226      -.1692947207E-3  .08076149677841      -36.39673877752
                      -2.766187311371       -0.0003697      .08076131933783       90.1201053      -17309.62143949

 X0001B               -893.5002942537  934.68833970619        -.07002600155  .08076149677841      36.804389987637  .40765121011766
                      274.40757378617      162.9274790      .04023404614009      150.1201053      8.3667334389482   -17301.2547060

            X0002B    -214332.9911702  428661.19117226      .07002600155004  .08076149677841      -36.39673877752
                      -371230.0980703     -120.0003697      -.0402340461401      -29.8798947      -17309.62143949

 X0001C               684.39407701654  934.68833970619      .06985670682937  .08076149677841      36.804389987637  .40765121011806
                      636.59016621952       42.9274790      .04052727319774       30.1201053      8.3667334389482   -17301.2547060

            X0002C    -214328.1999932  428661.19117226      -.0698567068294  .08076149677841      -36.39673877752
                       371232.8642576      119.9996303      -.0405272731977     -149.8798947      -17309.62143949

 LN1A                 209.10621680899  934.68833968998      .42819672830783  .43591200833265      7.5774860275622   .6781783607289
                      -910.9977400873      -77.0725211      .08165072489004       10.7958466      -203.5799629913     -548.5311039

            VFF2A     203.68367268109  914.22419548019       .7323014619575   .7547823207154      -6.899307666833
                      -891.2456681996      -77.1268083      .18284124392334       14.0190019      -344.9511409329

 LN1B                 -893.5002941103  934.68833968998      -.1433867621617  .43591200833265      7.5774860275625  .67817836072932
                      274.40757419782      162.9274789       -.411654606977     -109.2041534      -203.5799629913     -548.5311039

            VFF2B     -873.6832260142  914.22419548019      -.2078055688816   .7547823207154      -6.899307666833
                      269.22759922186      162.8731917      -.7256122912453     -105.9809981      -344.9511409329

 LN1C                 684.39407730135  934.68833968998      -.2848099661461  .43591200833265      7.5774860275622  .67817836072908
                      636.59016588951       42.9274789      .33000388208695      130.7958466      -203.5799629913     -548.5311039

            VFF2C     669.99955333314  914.22419548019      -.5244958930759   .7547823207154      -6.899307666833
                      622.01806897774       42.8731917      .54277104732201      134.0190019      -344.9511409329
     Total network loss  P-loss  by summing injections =   2.756299423143E+05

Output for steady-state phasor switch currents.
      Node-K    Node-M            I-real            I-imag            I-magn          Degrees        Power            Reactive
      LN1A      COMPA         2.08038779E-07   -1.03398614E-06    1.05470730E-06     -78.6239    4.92730621E-04    1.33450368E-05
      LN1B      COMPB        -8.59753686E-07    2.62019221E-07    8.98793899E-07     163.0508    4.20045115E-04   -9.04336388E-07
      LN1C      COMPC         7.02546901E-07    6.91156394E-07    9.85529964E-07      44.5317    4.60401151E-04   -1.28944471E-05
      VFF2A     RSNNHA       -7.32301462E-01   -1.82841244E-01    7.54782321E-01    -165.9810    6.89930767E+00    3.44951141E+02
      VFF2B     RSNNHB        2.07805569E-01    7.25612291E-01    7.54782321E-01      74.0190    6.89930767E+00    3.44951141E+02
      VFF2C     RSNNHC        5.24495893E-01   -5.42771047E-01    7.54782321E-01     -45.9810    6.89930767E+00    3.44951141E+02
      VFF2A     SE2A              Open              Open              Open             Open          Open              Open
      VFF2B     SE2B              Open              Open              Open             Open          Open              Open
      VFF2C     SE2C              Open              Open              Open             Open          Open              Open
      X0001B    XX0003            Open              Open              Open             Open          Open              Open
      X0001C    XX0004            Open              Open              Open             Open          Open              Open
      XX0005    X0002A            Open              Open              Open             Open          Open              Open
      XX0003    X0002B            Open              Open              Open             Open          Open              Open
      XX0004    X0002C            Open              Open              Open             Open          Open              Open
      X0001A    XX0005            Open              Open              Open             Open          Open              Open
      VFUENA    IFUENA        4.28680425E-01    1.22069914E-01    4.45721854E-01      15.8947    9.18792267E+04   -2.61632876E+04
      VFUENB    IFUENB       -1.08624566E-01   -4.32283095E-01    4.45721854E-01    -104.1053    9.18792267E+04   -2.61632876E+04
      VFUENC    IFUENC       -3.20055859E-01    3.10213182E-01    4.45721854E-01     135.8947    9.18792267E+04   -2.61632877E+04
      COMPA     RSNSHA        2.08038779E-07   -1.03398614E-06    1.05470730E-06     -78.6239    4.92730621E-04    1.33450368E-05
      COMPB     RSNSHB       -8.59753686E-07    2.62019221E-07    8.98793899E-07     163.0508    4.20045115E-04   -9.04336388E-07
      COMPC     RSNSHC        7.02546901E-07    6.91156394E-07    9.85529964E-07      44.5317    4.60401151E-04   -1.28944471E-05

Solution at nodes with known voltage.   Nodes that are shorted together by switches are shown as a group of names, with the printed
result applying to the composite group.   The entry "MVA" is  SQRT( P**2 + Q**2 )  in units of power,  while  "P.F."  is the
associated power factor.
              Node                Source  node  voltage             Injected  source  current              Injected  source  power
              name         Rectangular            Polar          Rectangular            Polar            P  and  Q    MVA and P.F.

               VFUENA
              IFUENA       428660.705       428660.705      .42868042533652  .44572185375388      91879.226672225  95531.722032022
                                  0.0              0.0      .12206991376706       15.8946942      -26163.28764734        0.9617667

               VFUENB
              IFUENB     -214330.3525       428660.705      -.1086245662998  .44572185374672      91879.226670349  95531.722030488
                      -371231.0601341     -120.0000000      -.4322830953248     -104.1053058      -26163.28764833        0.9617667

               VFUENC
              IFUENC     -214330.3525       428660.705      -.3200558590414  .44572185375409      91879.226671177  95531.722032068
                      371231.06013415      120.0000000       .3102131815498      135.8946942      -26163.28765119        0.9617667

  +++  Node  "COMPC "  has no connected linear branches.  Add (to ground) the conductance  G = 1.00000000E-18  mhos.
  +++  Node  "COMPB "  has no connected linear branches.  Add (to ground) the conductance  G = 1.00000000E-18  mhos.
  +++  Node  "COMPA "  has no connected linear branches.  Add (to ground) the conductance  G = 1.00000000E-18  mhos.
Card of names for time-step loop output.          |  LN1A  LN1B  LN1C  COMPA COMPB COMPC SB1A  SB1B  SB1C  SE2A  SE2B  SE2C  VFF2A
Card of names for time-step loop output.          |  VFF2B VFF2C IFUENAIFUENBIFUENC
Card of names for time-step loop output.          |-5VFF2A VFF2B VFF2B VFF2C VFF2C VFF2A LN1A  LN1B  LN1B  LN1C  LN1C  LN1A
Card of names for time-step loop output.          |-5SB1A  SB1B  SB1B  SB1C  SB1C  SB1A
Blank card ending requests for output variables.  |BLANK OUTPUT

Column headings for the  55   EMTP output variables follow.  These are divided among the 5 possible classes as follows ....
  First  27     output variables are electric-network voltage differences (upper voltage minus lower voltage);
  Next   6     output variables are branch currents (flowing from the upper node to the lower node);
  Next   22     output variables belong to MODELS (with "MODELS" an internally-added upper name of pair).
   Step      Time      LN1A       LN1B       LN1C       COMPA      COMPB      COMPC      SB1A       SB1B       SB1C       SE2A
 

                       SE2B       SE2C       VFF2A      VFF2B      VFF2C      IFUENA     IFUENB     IFUENC     VFF2A      VFF2B
                                                                                                               VFF2B      VFF2C

                       VFF2C      LN1A       LN1B       LN1C       SB1A       SB1B       SB1C       VFUENA     VFUENB     VFUENC
                       VFF2A      LN1B       LN1C       LN1A       SB1B       SB1C       SB1A       IFUENA     IFUENB     IFUENC

                       COMPA      COMPB      COMPC      MODELS     MODELS     MODELS     MODELS     MODELS     MODELS     MODELS
                       RSNSHA     RSNSHB     RSNSHC     ANVOL      LONG       R0F        R1F        X0F        X1F        RDIVX

                       MODELS     MODELS     MODELS     MODELS     MODELS     MODELS     MODELS     MODELS     MODELS     MODELS
                       RINSER     CLOSE1     RPPOS      RPCERO     LPPOS      LPCERO     CPPOS      CPCERO     XP         CR

                       MODELS     MODELS     MODELS     MODELS     MODELS
                       SIMET      ENC1       ENC2       ENC1AS     ENC2AS
 ***      Phasor I(0) =  2.0803878E-07                     Switch  "LN1A  "  to  "COMPA "  closed in the steady-state.
 ***      Phasor I(0) = -8.5975369E-07                     Switch  "LN1B  "  to  "COMPB "  closed in the steady-state.
 ***      Phasor I(0) =  7.0254690E-07                     Switch  "LN1C  "  to  "COMPC "  closed in the steady-state.
 ***      Phasor I(0) = -7.3230146E-01                     Switch  "VFF2A "  to  "RSNNHA"  closed in the steady-state.
 ***      Phasor I(0) =  2.0780557E-01                     Switch  "VFF2B "  to  "RSNNHB"  closed in the steady-state.
 ***      Phasor I(0) =  5.2449589E-01                     Switch  "VFF2C "  to  "RSNNHC"  closed in the steady-state.
 ***      Phasor I(0) =  4.2868043E-01                     Switch  "VFUENA"  to  "IFUENA"  closed in the steady-state.
 ***      Phasor I(0) = -1.0862457E-01                     Switch  "VFUENB"  to  "IFUENB"  closed in the steady-state.
 ***      Phasor I(0) = -3.2005586E-01                     Switch  "VFUENC"  to  "IFUENC"  closed in the steady-state.
 ***      Phasor I(0) =  2.0803878E-07                     Switch  "COMPA "  to  "RSNSHA"  closed in the steady-state.
 ***      Phasor I(0) = -8.5975369E-07                     Switch  "COMPB "  to  "RSNSHB"  closed in the steady-state.
 ***      Phasor I(0) =  7.0254690E-07                     Switch  "COMPC "  to  "RSNSHC"  closed in the steady-state.
      0       0.0  209.106217 -893.50029 684.394077 209.106217 -893.50029 684.394077 428661.191 -214332.99  -214328.2        0.0
                          0.0        0.0 203.683673 -873.68323 669.999553 428660.705 -214330.35 -214330.35  1077.3669 -1543.6828
                   466.315881 1102.60651 -1577.8944  475.28786 642994.182 -4.7911768 -642989.39 .428680425 -.10862457 -.32005586
                   .208039E-6 -.85975E-6 .702547E-6        0.0   348.5778    .703515    .650634   6.776926   6.267524     .10381
                         380.    .057351    .019138    .289657    .361285    .996665      .0116    .007433   1211.046   24.22092
                          0.0        0.0        0.0        0.0        1.0
    500     .5E-3  349.043326 -925.42667 576.383344 349.043326 -925.42667 576.383344 423384.099 -153621.02 -269763.08        0.0
                          0.0        0.0 340.597527 -905.04321 564.445679  423383.18 -153618.26 -269764.92 1245.64073 -1469.4889
                   223.848152    1274.47   -1501.81 227.340018 577005.116 116142.064 -693147.18 .404332837 -.03967279 -.36466005
                   .347883E-6 -.96072E-6 .555941E-6        0.0   348.5778    .703515    .650634   6.776926   6.267524     .10381
                         380.    .057351    .019138    .289657    .361285    .996665      .0116    .007433   1211.046   24.22092
                          0.0        0.0        0.0        0.0        1.0
   1000     .1E-2  480.385617 -934.56587 454.180256 480.385617 -934.56587 454.180256 407681.874 -89126.379 -318555.49        0.0
                          0.0        0.0  469.12474 -914.11802 444.993284 407680.557 -89123.572 -318556.98 1383.24276 -1359.1113
                   -24.131457 1414.95149 -1388.7461 -26.205361 496808.253 229429.116 -726237.37 .370002354 .030269305 -.40027166
                    .47519E-6 -.97651E-6 .501284E-6        0.0   348.5778    .703515    .650634   6.776926   6.267524     .10381
                         380.    .057351    .019138    .289657    .361285    .996665      .0116    .007433   1211.046   24.22092
                          0.0        0.0        0.0        0.0        1.0
   1500     .0015  599.899318 -920.69301  320.79369 599.899318 -920.69301  320.79369 381941.174 -22437.156 -359504.02        0.0
                          0.0        0.0 586.103165 -900.68552 314.582353 381939.485 -22434.368 -359505.12 1486.78868 -1215.2679
                   -271.52081 1520.59233 -1241.4867 -279.10563  404378.33 337066.862 -741445.19  .32656154 .099465891 -.42602743
                   .584856E-6 -.98292E-6 .341213E-6        0.0   348.5778    .703515    .650634   6.776926   6.267524     .10381
                         380.    .057351    .019138    .289657    .361285    .996665      .0116    .007433   1211.046   24.22092
                          0.0        0.0        0.0        0.0        1.0
   2000      .002  704.641511 -884.14963 179.508121 704.641511 -884.14963 179.508121 346795.815 44804.5444 -391600.36        0.0
                          0.0        0.0 688.644537 -865.07254    176.428 346793.795 44807.2448 -391601.04 1553.71707 -1041.5005
                   -512.21654 1588.79114 -1063.6578 -525.13339  301991.27 436404.903 -738396.17  .27507985 .166213219 -.44129307
                   .726251E-6 -.97797E-6  .19485E-6        0.0   348.5778    .703515    .650634   6.776926   6.267524     .10381
                         380.    .057351    .019138    .289657    .361285    .996665      .0116    .007433   1211.046   24.22092
                          0.0        0.0        0.0        0.0        1.0
   2500     .0025  792.033093 -825.83556 33.8024665 792.033093 -825.83556 33.8024665 303111.191 110943.008  -414054.2        0.0
                          0.0        0.0 774.231947 -808.15997 33.9280274 303108.891 110945.554 -414054.45 1582.39192   -842.088
                   -740.30392 1617.86865 -859.63803 -758.23063 192168.183 524997.207 -717165.39 .216824719 .228867857 -.44569258
                   .867933E-6 -.87602E-6 .365108E-7        0.0   348.5778    .703515    .650634   6.776926   6.267524     .10381
                         380.    .057351    .019138    .289657    .361285    .996665      .0116    .007433   1211.046   24.22092
                          0.0        0.0        0.0        0.0        1.0
   3000      .003  859.922534 -747.18683  -112.7357 859.922534 -747.18683  -112.7357 251962.956 174349.691 -426312.65        0.0
                          0.0        0.0 840.755141  -731.3478 -109.40734 251960.441 174352.016 -426312.46 1572.10294 -621.94046
                   -950.16248 1607.10937 -634.45113 -972.65824 77613.2657 600662.338  -678275.6 .153235327 .285884666 -.43911999
                   .872443E-6 -.74161E-6 -.11663E-6        0.0   348.5778    .703515    .650634   6.776926   6.267524     .10381
                         380.    .057351    .019138    .289657    .361285    .996665      .0116    .007433   1211.046   24.22092
                          0.0        0.0        0.0        0.0        1.0
   3500     .0035  906.637098 -650.13953 -256.49756 906.637098 -650.13953 -256.49756 194610.571 233463.298 -428073.87        0.0
                          0.0        0.0 886.576141 -636.52741 -250.04873 194607.888 233465.353 -428073.24 1523.10355 -386.47868
                   -1136.6249 1556.77663 -393.64197 -1163.1347 -38852.727 661537.168 -622684.44 .085863218 .335866825 -.42173004
                   .984519E-6 -.67446E-6 -.25325E-6        0.0   348.5778    .703515    .650634   6.776926   6.267524     .10381
                         380.    .057351    .019138    .289657    .361285    .996665      .0116    .007433   1211.046   24.22092
                          0.0        0.0        0.0        0.0        1.0
   4000      .004  931.027683 -537.08386 -393.94383 931.027683 -537.08386 -393.94383 132466.224 286828.267 -419294.49        0.0
                          0.0        0.0 910.566502  -526.0335   -384.533 132463.443 286829.997 -419293.44     1436.6  -141.5005
                   -1295.0995 1468.11154 -143.14003 -1324.9715 -154362.04 706122.758 -551760.71 .016382131 .377576198 -.39395833
                   .102385E-5 -.57294E-6 -.39395E-6        0.0   348.5778    .703515    .650634   6.776926   6.267524     .10381
                         380.    .057351    .019138    .289657    .361285    .996665      .0116    .007433   1211.046   24.22092
                          0.0        0.0        0.0        0.0        1.0
   4500     .0045  932.493241 -410.80338 -521.68986 932.493241 -410.80338 -521.68986 67060.1164 333130.573 -400190.69        0.0
                          0.0        0.0 912.135536 -402.58683  -509.5487 67057.3081 333131.936 -400189.24 1314.72237 106.961873
                   -1421.6842 1343.29662 110.886479 -1454.1831 -266070.46 733321.262 -467250.81 -.05350256 .409988504 -.35648594
                   .985056E-6 -.40705E-6 -.57803E-6        0.0   348.5778    .703515    .650634   6.776926   6.267524     .10381
                         380.    .057351    .019138    .289657    .361285    .996665      .0116    .007433   1211.046   24.22092
                          0.0        0.0        0.0        0.0        1.0
   5000      .005  910.997716 -274.40756 -636.59016 910.997716 -274.40756 -636.59016 2.76633586 371230.098 -371232.86        0.0
                          0.0        0.0 891.245684  -269.2276 -622.01808 -.45661E-7  371231.06 -371231.06 1160.47328 352.790485
                   -1513.2638 1185.40527 362.182598 -1547.5879 -371227.33 742462.962 -371235.63 -.12206992 .432305568 -.31023565
                    .90644E-6 -.27307E-6 -.63347E-6        0.0   348.5778    .703515    .650634   6.776926   6.267524     .10381
                         380.    .057351    .019138    .289657    .361285    .996665      .0116    .007433   1211.046   24.22092
                          0.0        0.0        0.0        0.0        1.0
   5500     .0055  867.070713 -131.25505 -735.81566 867.070713 -131.25505 -735.81566 -67054.662 400188.712 -333134.05        0.0
                          0.0        0.0 848.409792 -129.23878 -719.17101 -67057.308 400189.244 -333131.94  977.64857 589.932234
                   -1567.5808 998.325767 604.560606 -1602.8864 -467243.37 733322.761 -266079.39 -.18763227 .443978213 -.25634595
                   .913304E-6 -.14788E-6 -.79389E-6        0.0   348.5778    .703515    .650634   6.776926   6.267524     .10381
                         380.    .057351    .019138    .289657    .361285    .996665      .0116    .007433   1211.046   24.22092
                          0.0        0.0        0.0        0.0        1.0
   6000      .006  801.792891 15.1297007 -816.92259 801.792891 15.1297007 -816.92259 -132460.96 419293.339 -286832.38        0.0
                          0.0        0.0 784.683258 13.9323131 -798.61557 -132463.44  419293.44   -286830. 770.750944 812.547884
                   -1583.2988  786.66319 832.052292 -1618.7155  -551754.3 706125.719 -154371.42 -.24857401 .444718409 -.19614439
                   .813679E-6 .154939E-7 -.82207E-6        0.0   348.5778    .703515    .650634   6.776926   6.267524     .10381
                         380.    .057351    .019138    .289657    .361285    .996665      .0116    .007433   1211.046   24.22092
                          0.0        0.0        0.0        0.0        1.0
   6500     .0065  716.772729 161.141687 -877.91442 716.772729 161.141687 -877.91442 -194605.64 428073.581 -233467.94        0.0
                          0.0        0.0 701.637111 156.759412 -858.39652 -194607.89  428073.24 -233465.35 544.877698 1015.15594
                   -1560.0336 555.631042  1039.0561 -1594.6871 -622679.22 661541.519 -38862.295 -.30339348 .434507374  -.1311139
                    .77359E-6 .172181E-6 -.91729E-6        0.0   348.5778    .703515    .650634   6.776926   6.267524     .10381
                         380.    .057351    .019138    .289657    .361285    .996665      .0116    .007433   1211.046   24.22092
                          0.0        0.0        0.0        0.0        1.0
   7000      .007  614.103082 303.185904 -917.28899 614.103082 303.185904 -917.28899 -251958.49 426313.229 -174354.74        0.0
                          0.0        0.0 601.310779 295.728335 -897.03911 -251960.44 426312.457 -174352.02 305.582444 1192.76745
                   -1498.3499 310.917177 1220.47489 -1531.3921 -678271.72 600667.971 77603.7472  -.3507439 .413598084 -.06285418
                   .666403E-6 .302619E-6 -.91223E-6        0.0   348.5778    .703515    .650634   6.776926   6.267524     .10381
                         380.    .057351    .019138    .289657    .361285    .996665      .0116    .007433   1211.046   24.22092
                          0.0        0.0        0.0        0.0        1.0
   7500     .0075  496.312235 437.764652 -934.07689 496.312235 437.764652 -934.07689 -303107.28 414055.631 -110948.35        0.0
                          0.0        0.0 486.179846  427.41461 -913.59446 -303108.89 414054.446 -110945.55 58.7652364 1341.00907
                   -1399.7743 58.5475829 1371.84154 -1430.3891 -717162.91 525003.983 192158.927 -.38945765 .382504541 .006953111
                   .547773E-6 .478804E-6  -.9698E-6        0.0   348.5778    .703515    .650634   6.776926   6.267524     .10381
                         380.    .057351    .019138    .289657    .361285    .996665      .0116    .007433   1211.046   24.22092
                          0.0        0.0        0.0        0.0        1.0
   8000      .008  366.300181 561.564369 -927.86455 366.300181 561.564369 -927.86455 -346792.57 391602.611 -44810.045        0.0
                          0.0        0.0 359.077458 548.576572 -907.65403  -346793.8  391601.04 -44807.245 -189.49911  1456.2306
                   -1266.7315 -195.26419 1489.42892 -1294.1647 -738395.18 436412.656 301982.521 -.41857865 .341990961 .076587693
                   .359942E-6 .629718E-6  -.9897E-6        0.0   348.5778    .703515    .650634   6.776926   6.267524     .10381
                         380.    .057351    .019138    .289657    .361285    .996665      .0116    .007433   1211.046   24.22092
                          0.0        0.0        0.0        0.0        1.0
   8500     .0085  227.269189 671.536199 -898.80539 227.269189 671.536199 -898.80539 -381938.66  359507.03 22431.6294        0.0
                          0.0        0.0 223.133566 656.230665 -879.36423 -381939.48 359505.117 22434.3679  -433.0971  1535.5949
                   -1102.4978 -444.26701 1570.34159 -1126.0746 -741445.69 337075.401 404370.289 -.43739836 .293059179  .14433918
                   .249964E-6 .748657E-6 -.88487E-6        0.0   348.5778    .703515    .650634   6.776926   6.267524     .10381
                         380.    .057351    .019138    .289657    .361285    .996665      .0116    .007433   1211.046   24.22092
                          0.0        0.0        0.0        0.0        1.0
   9000      .009  82.6419564 764.972644  -847.6146 82.6419564 764.972644  -847.6146 -407680.17 318559.198 89120.9675        0.0
                          0.0        0.0 81.6955717 747.726104 -829.42168 -407680.56 318556.985  89123.572 -666.03053 1577.14778
                   -911.11725 -682.33069 1612.58724 -930.25656 -726239.36  229438.23 496801.133 -.44544543  .23691009 .208535344
                   .799129E-7 .770132E-6  -.8358E-6        0.0   348.5778    .703515    .650634   6.776926   6.267524     .10381
                         380.    .057351    .019138    .289657    .361285    .996665      .0116    .007433   1211.046   24.22092
                          0.0        0.0        0.0        0.0        1.0
   9500     .0095  -64.020353 839.572998 -775.55264 -64.020353 839.572998 -775.55264 -423383.23 269767.378  153615.85        0.0
                          0.0        0.0 -61.755083 820.810548 -759.05546 -423383.18 269764.922 153618.258 -882.56563 1579.86601
                   -697.30038 -903.59335 1615.12564 -711.53229 -693150.61 116151.529 576999.078 -.44252428 .174927545 .267596731
                    -.6798E-7 .838323E-6  -.7847E-6        0.0   348.5778    .703515    .650634   6.776926   6.267524     .10381
                         380.    .057351    .019138    .289657    .361285    .996665      .0116    .007433   1211.046   24.22092
                          0.0        0.0        0.0        0.0        1.0
  10000       .01  -209.10621 893.500251 -684.39404 -209.10621 893.500251 -684.39404 -428661.19 214332.991   214328.2        0.0
                          0.0        0.0 -203.68374 873.683221 -669.99948 -428660.71 214330.353 214330.352  -1077.367 1543.68271
                   -466.31575 -1102.6065 1577.89429 -475.28782 -642994.18  4.7914588 642989.391 -.42870638 .108637544 .320068837
                   -.20811E-6 .937822E-6 -.72963E-6        0.0   348.5778    .703515    .650634   6.776926   6.267524     .10381
                         380.    .057351    .019138    .289657    .361285    .996665      .0116    .007433   1211.046   24.22092
                          0.0        0.0        0.0        0.0        1.0
  10500     .0105  -349.04312  925.42654 -576.38342 -349.04312  925.42654 -576.38342 -423384.08 153621.009 269763.073        0.0
                          0.0        0.0 -340.59754 905.043179 -564.44564 -423383.18 153618.258 269764.922 -1245.6407 1469.48882
                    -223.8481 -1274.4697 1501.80996 -227.34031 -577005.09 -116142.06 693147.154 -.40433188  .03967231 .364659567
                   -.37076E-6 .969196E-6 -.65524E-6        0.0   348.5778    .703515    .650634   6.776926   6.267524     .10381
                         380.    .057351    .019138    .289657    .361285    .996665      .0116    .007433   1211.046   24.22092
                          0.0        0.0        0.0        0.0        1.0
  11000      .011  -480.38564 934.565853 -454.18021 -480.38564 934.565853 -454.18021 -407681.87 89126.3779 318555.494        0.0
                          0.0        0.0 -469.12472 914.117974 -444.99325 -407680.56  89123.572 318556.985 -1383.2427 1359.11123
                   24.1314651 -1414.9515 1388.74606 26.2054301 -496808.25 -229429.12 726237.366 -.37000311 -.03026893 .400272038
                   -.48692E-6 .953663E-6 -.46671E-6        0.0   348.5778    .703515    .650634   6.776926   6.267524     .10381
                         380.    .057351    .019138    .289657    .361285    .996665      .0116    .007433   1211.046   24.22092
                          0.0        0.0        0.0        0.0        1.0
  11500     .0115  -599.89921 920.692929 -320.79371 -599.89921 920.692929 -320.79371 -381941.17 22437.1562 359504.018        0.0
                          0.0        0.0  -586.0996 900.683718 -314.58412 -381939.48 22434.3679 359505.117 -1486.7833 1215.26784
                   271.515473 -1520.5921 1241.48664 279.105501 -404378.33 -337066.86 741445.193 -.32656187 -.09946573 .426027596
                   -.60101E-6 .991174E-6 -.33333E-6        0.0   348.5778    .703515    .650634   6.776926   6.267524     .10381
                         380.    .057351    .019138    .289657    .361285    .996665      .0116    .007433   1211.046   24.22092
                          0.0        0.0        0.0        0.0        1.0
  12000      .012  -704.64149 884.149588  -179.5081 -704.64149 884.149588  -179.5081 -346795.81 -44804.545 391600.359        0.0
                          0.0        0.0 -688.64473 865.072609 -176.42788  -346793.8 -44807.245  391601.04 -1553.7173 1041.50049
                   512.216849 -1588.7911 1063.65769 525.133389 -301991.27  -436404.9 738396.172 -.27507987 -.16621321 .441293079
                    -.7111E-6 .970305E-6 -.17391E-6        0.0   348.5778    .703515    .650634   6.776926   6.267524     .10381
                         380.    .057351    .019138    .289657    .361285    .996665      .0116    .007433   1211.046   24.22092
                          0.0        0.0        0.0        0.0        1.0
  12500     .0125  -792.03305 825.835503 -33.802449 -792.03305 825.835503 -33.802449 -303111.19 -110943.01 414054.199        0.0
                          0.0        0.0 -774.23179  808.15987 -33.928076 -303108.89 -110945.55 414054.446 -1582.3917 842.087945
                   740.303718 -1617.8686 859.637953 758.230604 -192168.18 -524997.21  717165.39 -.21682471 -.22886786 .445692569
                   -.87667E-6 .880336E-6 -.32112E-7        0.0   348.5778    .703515    .650634   6.776926   6.267524     .10381
                         380.    .057351    .019138    .289657    .361285    .996665      .0116    .007433   1211.046   24.22092
                          0.0        0.0        0.0        0.0        1.0
  13000      .013  -859.92281 747.186956 112.735852 -859.92281 747.186956 112.735852 -251962.96 -174349.69 426312.651        0.0
                          0.0        0.0 -840.75512 731.347765 109.407353 -251960.44 -174352.02 426312.457 -1572.1029 621.940412
                    950.16247 -1607.1098 634.451104 972.658659 -77613.277 -600662.34 678275.614 -.15323265 -.28588601 .439118655
                   -.95173E-6 .838955E-6 .112734E-6        0.0   348.5778    .703515    .650634   6.776926   6.267524     .10381
                         380.    .057351    .019138    .289657    .361285    .996665      .0116    .007433   1211.046   24.22092
                          0.0        0.0        0.0        0.0        1.0
  13500     .0135  -906.63723 650.139582 256.497648 -906.63723 650.139582 256.497648 -194610.57  -233463.3 428073.871        0.0
                          0.0        0.0  -886.5761 636.527369 250.048736 -194607.89 -233465.35  428073.24 -1523.1035 386.478633
                   1136.62484 -1556.7768 393.641934 1163.13488 38852.7222 -661537.17 622684.446 -.08586365 -.33586661 .421730258
                    -.1004E-5 .627948E-6 .262429E-6        0.0   348.5778    .703515    .650634   6.776926   6.267524     .10381
                         380.    .057351    .019138    .289657    .361285    .996665      .0116    .007433   1211.046   24.22092
                          0.0        0.0        0.0        0.0        1.0
  14000      .014  -931.02763 537.083815 393.943817 -931.02763 537.083815 393.943817 -132466.22 -286828.27 419294.491        0.0
                          0.0        0.0 -910.56666 526.033563 384.533093 -132463.44   -286830.  419293.44 -1436.6002  141.50047
                   1295.09975 -1468.1114 143.139998 1324.97145 154362.042 -706122.76 551760.716 -.01638199 -.37757627 .393958257
                   -.10034E-5 .506109E-6 .440428E-6        0.0   348.5778    .703515    .650634   6.776926   6.267524     .10381
                         380.    .057351    .019138    .289657    .361285    .996665      .0116    .007433   1211.046   24.22092
                          0.0        0.0        0.0        0.0        1.0
  14500     .0145   -932.4932 410.803344 521.689855  -932.4932 410.803344 521.689855 -67060.116 -333130.57 400190.689        0.0
                          0.0        0.0 -912.13588 402.586998 509.548883 -67057.308 -333131.94 400189.244 -1314.7229 -106.96188
                   1421.68476 -1343.2965 -110.88651 1454.18305 266070.456 -733321.26 467250.805 .053502547  -.4099885 .356485949
                   -.97421E-6 .458431E-6 .572647E-6        0.0   348.5778    .703515    .650634   6.776926   6.267524     .10381
                         380.    .057351    .019138    .289657    .361285    .996665      .0116    .007433   1211.046   24.22092
                          0.0        0.0        0.0        0.0        1.0
  % % % % % %   Suspended simulation;  plot data space exhausted;  SPY SPACE is required.   LIMBUF =  840000.
  % % % % % %   Suspended simulation;  plot data space exhausted;  SPY SPACE is required.   LIMBUF =  840000.
  +++  Time-sharing disabled.   Send  user-keyed interrupt to silence alarm.
   Current values.  INDBUF  INDBEG  LIMBUF  MFLUSH  NUMDCD  KCARD1  KCARD2
                    839994      50  840000    1000     230       1     231
Plot timespan now in memory (in sec) = 0.00000000E+00   1.49990000E-02
   ++++  Begin plot-data copy from memory to disk.   MFLUSH, INDBUF, N4, Tbeg,  Tend = 1001  839994       1  -1.00000E+00
1.00000E+19
  15000      .015  -910.99767 274.407516 636.590149 -910.99767 274.407516 636.590149  -2.766569  -371230.1 371232.864        0.0
                          0.0        0.0 -891.24558 269.227539 622.018045 -.61533E-6 -371231.06  371231.06 -1160.4731 -352.79051
                   1513.26363 -1185.4052 -362.18263 1547.58781 371227.331 -742462.96 371235.631 .122069907 -.43230556 .310235656
                   -.89929E-6 .269508E-6 .629807E-6        0.0   348.5778    .703515    .650634   6.776926   6.267524     .10381
                         380.    .057351    .019138    .289657    .361285    .996665      .0116    .007433   1211.046   24.22092
                          0.0        0.0        0.0        0.0        1.0
  15500     .0155  -867.07045 131.254931 735.815522 -867.07045 131.254931 735.815522 67054.6431  -400188.7 333134.059        0.0
                          0.0        0.0 -848.40977 129.238764 719.171004 67057.3081 -400189.24 333131.936 -977.64853 -589.93224
                   1567.58077 -998.32538 -604.56059 1602.88598 467243.345 -733322.76 266079.416 .187631379 -.44397777 .256346394
                   -.91918E-6  .12566E-6 .736618E-6        0.0   348.5778    .703515    .650634   6.776926   6.267524     .10381
                         380.    .057351    .019138    .289657    .361285    .996665      .0116    .007433   1211.046   24.22092
                          0.0        0.0        0.0        0.0        1.0
  16000      .016   -801.7926 -15.129847 816.922442  -801.7926 -15.129847 816.922442 132460.963 -419293.34 286832.378        0.0
                          0.0        0.0  -784.6832  -13.93235 798.615546 132463.443 -419293.44 286829.997 -770.75085  -812.5479
                   1583.29874 -786.66275 -832.05229 1618.71504 551754.303 -706125.72 154371.416 .248572682 -.44471774  .19614506
                   -.82687E-6   -.165E-7 .829226E-6        0.0   348.5778    .703515    .650634   6.776926   6.267524     .10381
                         380.    .057351    .019138    .289657    .361285    .996665      .0116    .007433   1211.046   24.22092
                          0.0        0.0        0.0        0.0        1.0
  16500     .0165  -716.77257 -161.14176 877.914332 -716.77257 -161.14176 877.914332 194605.644 -428073.58 233467.938        0.0
                          0.0        0.0 -701.63518 -156.76037 858.395548 194607.888 -428073.24 233465.353  -544.8748 -1015.1559
                   1560.03072 -555.63081 -1039.0561  1594.6869 622679.225 -661541.52  38862.294 .303393704 -.43450749 .131113784
                   -.70467E-6 -.17829E-6 .882952E-6        0.0   348.5778    .703515    .650634   6.776926   6.267524     .10381
                         380.    .057351    .019138    .289657    .361285    .996665      .0116    .007433   1211.046   24.22092
                          0.0        0.0        0.0        0.0        1.0
  17000      .017  -614.10303 -303.18592 917.288957 -614.10303 -303.18592 917.288957 251958.488 -426313.23 174354.741        0.0
                          0.0        0.0 -601.31059 -295.72841 897.039005 251960.441 -426312.46 174352.016 -305.58218 -1192.7674
                    1498.3496 -310.91711 -1220.4749 1531.39199 678271.718 -600667.97 -77603.747 .350743865 -.41359807 .062854202
                   -.64369E-6   -.314E-6  .10145E-5        0.0   348.5778    .703515    .650634   6.776926   6.267524     .10381
                         380.    .057351    .019138    .289657    .361285    .996665      .0116    .007433   1211.046   24.22092
                          0.0        0.0        0.0        0.0        1.0
  17500     .0175  -496.31218 -437.76468 934.076853 -496.31218 -437.76468 934.076853 303107.279 -414055.63 110948.352        0.0
                          0.0        0.0 -486.17958 -427.41473 913.594313 303108.891 -414054.45 110945.554 -58.764846  -1341.009
                   1399.77389 -58.547499 -1371.8415 1430.38903  717162.91 -525003.98 -192158.93 .389457655 -.38250454 -.00695311
                   -.49282E-6 -.47784E-6 .970671E-6        0.0   348.5778    .703515    .650634   6.776926   6.267524     .10381
                         380.    .057351    .019138    .289657    .361285    .996665      .0116    .007433   1211.046   24.22092
                          0.0        0.0        0.0        0.0        1.0
  18000      .018  -366.30006  -561.5644 927.864459 -366.30006  -561.5644 927.864459 346792.563 -391602.61 44810.0467        0.0
                          0.0        0.0 -359.07741 -548.57658 907.653989 346793.795 -391601.04 44807.2448  189.49917 -1456.2306
                    1266.7314 195.264345 -1489.4289 1294.16452 738395.172 -436412.66 -301982.52  .41858354  -.3419934 -.07659014
                   -.35554E-6 -.60353E-6 .101578E-5        0.0   348.5778    .703515    .650634   6.776926   6.267524     .10381
                         380.    .057351    .019138    .289657    .361285    .996665      .0116    .007433   1211.046   24.22092
                          0.0        0.0        0.0        0.0        1.0
  18500     .0185  -227.26919 -671.53618 898.805365 -227.26919 -671.53618 898.805365 381938.659 -359507.03 -22431.629        0.0
                          0.0        0.0 -223.13352 -656.23068 879.364195 381939.485 -359505.12 -22434.368 433.097156 -1535.5949
                   1102.49771 444.266991 -1570.3415 1126.07455 741445.689  -337075.4 -404370.29 .437398546 -.29305927 -.14433927
                   -.23783E-6  -.6837E-6 .949949E-6        0.0   348.5778    .703515    .650634   6.776926   6.267524     .10381
                         380.    .057351    .019138    .289657    .361285    .996665      .0116    .007433   1211.046   24.22092
                          0.0        0.0        0.0        0.0        1.0
  19000      .019  -82.641945 -764.97263 847.614572 -82.641945 -764.97263 847.614572 407680.164  -318559.2 -89120.967        0.0
                          0.0        0.0 -81.695328  -747.7262 829.421526 407680.557 -318556.98 -89123.572 666.030871 -1577.1477
                   911.116854 682.330682 -1612.5872 930.256517 726239.361 -229438.23 -496801.13  .44544583 -.23691029 -.20853554
                   -.83319E-7 -.74691E-6 .858679E-6        0.0   348.5778    .703515    .650634   6.776926   6.267524     .10381
                         380.    .057351    .019138    .289657    .361285    .996665      .0116    .007433   1211.046   24.22092
                          0.0        0.0        0.0        0.0        1.0
  19500     .0195  64.0203696 -839.57298 775.552613 64.0203696 -839.57298 775.552613 423383.228 -269767.38 -153615.85        0.0
                          0.0        0.0 61.7547531 -820.81035 759.055599  423383.18 -269764.92 -153618.26 882.565105  -1579.866
                   697.300845 903.593352 -1615.1256 711.532243 693150.606 -116151.53 -576999.08  .44252433 -.17492757 -.26759676
                   .617457E-7 -.93471E-6 .801927E-6        0.0   348.5778    .703515    .650634   6.776926   6.267524     .10381
                         380.    .057351    .019138    .289657    .361285    .996665      .0116    .007433   1211.046   24.22092
                          0.0        0.0        0.0        0.0        1.0
  20000       .02  209.106249 -893.50025 684.393999 209.106249 -893.50025 684.393999 428661.191 -214332.99  -214328.2        0.0
                          0.0        0.0 203.683786 -873.68322 669.999435 428660.705 -214330.35 -214330.35 1077.36701 -1543.6827
                   466.315649  1102.6065 -1577.8942  475.28775 642994.182 -4.7914588 -642989.39  .42870638 -.10863754 -.32006884
                   .207821E-6 -.93763E-6 .729866E-6        0.0   348.5778    .703515    .650634   6.776926   6.267524     .10381
                         380.    .057351    .019138    .289657    .361285    .996665      .0116    .007433   1211.046   24.22092
                          0.0        0.0        0.0        0.0        1.0
  20500     .0205  349.043325  -925.4266 576.383277 349.043325  -925.4266 576.383277 423384.102 -153621.02 -269763.08        0.0
                          0.0        0.0 340.597517 -905.04314  564.44562  423383.18 -153618.26 -269764.92 1245.64065 -1469.4888
                   223.848103 1274.46993 -1501.8099 227.339952 577005.121 116142.064 -693147.18 .404332308 -.03967252 -.36465979
                   .341422E-6 -.95781E-6  .55955E-6        0.0   348.5778    .703515    .650634   6.776926   6.267524     .10381
                         380.    .057351    .019138    .289657    .361285    .996665      .0116    .007433   1211.046   24.22092
                          0.0        0.0        0.0        0.0        1.0
  21000      .021  480.385498 -934.56575  454.18025 480.385498 -934.56575  454.18025 407681.873 -89126.378 -318555.49        0.0
                          0.0        0.0  469.12473 -914.11795 444.993225 407680.557 -89123.572 -318556.98 1383.24269 -1359.1112
                   -24.131506 1414.95125  -1388.746 -26.205247 496808.251 229429.116 -726237.37 .370003011 .030268977 -.40027199
                    .48992E-6 -.98371E-6 .493863E-6        0.0   348.5778    .703515    .650634   6.776926   6.267524     .10381
[...]
                         380.    .057351    .019138    .289657    .361285    .996665      .0116    .007433   1211.046   24.22092
                          0.0        0.0        0.0        0.0        1.0
 113000      .113  -253965.59 -168265.79 422231.378 -253965.59 -168265.79 422231.378 -253965.59 -168265.79 422231.378        0.0
                          0.0        0.0 -265228.14 -96742.968  361971.11 -251960.44 -174352.02 426312.457 -168485.17 -458714.08
                   627199.252 -85699.796 -590497.17 676196.965 -85699.796 -590497.17 676196.965 87.1842152 107.629799 -194.81401
                   -.26189E-3 -.18013E-3 .441968E-3        0.0   348.5778    .703515    .650634   6.776926   6.267524     .10381
                         380.    .057351    .019138    .289657    .361285    .996665      .0116    .007433   1211.046   24.22092
                          0.0        0.0        0.0        0.0        1.0
 113500     .1135  -210021.99 -210746.18 420768.177 -210021.99 -210746.18 420768.177 -210021.99 -210746.19 420768.177        0.0
                          0.0        0.0 -229613.21 -134952.49 364565.698 -194607.89 -233465.35  428073.24 -94660.726 -499518.18
                    594178.91  724.19252 -631514.36 630790.169 724.193287 -631514.36 630790.169 203.842409 -179.59667 -24.245736
                   -.19819E-3 -.22453E-3 .451833E-3        0.0   348.5778    .703515    .650634   6.776926   6.267524     .10381
                         380.    .057351    .019138    .289657    .361285    .996665      .0116    .007433   1211.046   24.22092
                          0.0        0.0        0.0        0.0        1.0
 114000      .114  -129688.65 -287218.55 416907.199 -129688.65 -287218.55 416907.199 -129688.65 -287218.55   416907.2        0.0
                          0.0        0.0 -152959.98 -232912.78 385872.764 -132463.44   -286830.  419293.44 79952.7976 -618785.54
                   538832.747 157529.906 -704125.75 546595.846 157529.907 -704125.75 546595.846 287.697839 -329.70788 42.0100405
                   -.13161E-3 -.27126E-3 .432014E-3        0.0   348.5778    .703515    .650634   6.776926   6.267524     .10381
                         380.    .057351    .019138    .289657    .361285    .996665      .0116    .007433   1211.046   24.22092
                          0.0        0.0        0.0        0.0        1.0
 114500     .1145  -62589.425 -348305.32 410894.748 -62589.425 -348305.32 410894.748 -62589.424 -348305.32 410894.748        0.0
                          0.0        0.0 -93716.039 -282436.14 376152.177 -67057.308 -333131.94 400189.244 188720.099 -658588.31
                   469868.216 285715.898 -759200.07 473484.172   285715.9 -759200.07 473484.172 329.346535 -320.57127 -8.7752668
                   -.63882E-4 -.34124E-3 .383288E-3        0.0   348.5778    .703515    .650634   6.776926   6.267524     .10381
                         380.    .057351    .019138    .289657    .361285    .996665      .0116    .007433   1211.046   24.22092
                          0.0        0.0        0.0        0.0        1.0
 115000      .115  4319.83323 -386821.07 382501.235 4319.83323 -386821.07 382501.235 4319.83386 -386821.07 382501.235        0.0
                          0.0        0.0 -10517.668 -384105.14 394622.805 .127058E-4 -371231.06  371231.06  373587.47 -778727.94
                   405140.473 391140.901  -769322.3 378181.402 391140.902  -769322.3 378181.401 314.258811 -199.05726 -115.20155
                   .386986E-5 -.39523E-3 .392258E-3        0.0   348.5778    .703515    .650634   6.776926   6.267524     .10381
                         380.    .057351    .019138    .289657    .361285    .996665      .0116    .007433   1211.046   24.22092
                          0.0        0.0        0.0        0.0        1.0
 115500     .1155  65338.9281  -396714.6 331375.671 65338.9281  -396714.6 331375.671 65338.9288  -396714.6 331375.671        0.0
                          0.0        0.0 87995.7414 -462606.49  374610.75 67057.3081 -400189.24 333131.936 550602.233 -837217.24
                   286615.009 462053.527 -728090.27 266036.743 462053.528 -728090.27 266036.742 359.339279 -269.67786  -89.66142
                   .662779E-4  -.4038E-3 .352055E-3        0.0   348.5778    .703515    .650634   6.776926   6.267524     .10381
                         380.    .057351    .019138    .289657    .361285    .996665      .0116    .007433   1211.046   24.22092
                          0.0        0.0        0.0        0.0        1.0
 116000      .116  149233.908 -451926.23 302692.324 149233.908 -451926.23 302692.324 149233.908 -451926.23 302692.323        0.0
                          0.0        0.0 151865.198 -475663.36 323798.161 132463.443 -419293.44 286829.997 627528.557 -799461.52
                   171932.962 601160.139 -754618.56 153458.416  601160.14 -754618.55 153458.415 293.789551 -43.105447  -250.6841
                   .150677E-3 -.47689E-3 .326246E-3        0.0   348.5778    .703515    .650634   6.776926   6.267524     .10381
                         380.    .057351    .019138    .289657    .361285    .996665      .0116    .007433   1211.046   24.22092
                          0.0        0.0        0.0        0.0        1.0
 116500     .1165  201800.393 -435595.03 233794.637 201800.393 -435595.03 233794.637 201800.394 -435595.03 233794.636        0.0
                          0.0        0.0 200110.077 -431817.12 231707.042 194607.888 -428073.24 233465.353 631927.195 -663524.16
                   31596.9653 637395.424 -669389.67 31994.2441 637395.424 -669389.67 31994.2429 202.558741 197.184433 -399.74317
                   .213899E-3 -.46015E-3  .21714E-3        0.0   348.5778    .703515    .650634   6.776926   6.267524     .10381
                         380.    .057351    .019138    .289657    .361285    .996665      .0116    .007433   1211.046   24.22092
                          0.0        0.0        0.0        0.0        1.0
 117000      .117  258212.195 -435547.13 177334.938 258212.195 -435547.13 177334.938 258212.196 -435547.13 177334.937        0.0
                          0.0        0.0 281196.587 -485206.75 204010.166 251960.441 -426312.46 174352.016  766403.34 -689216.92
                   -77186.421 693759.329 -612882.07 -80877.257 693759.329 -612882.07 -80877.258 135.513612 317.765819 -453.27943
                   .259536E-3 -.46195E-3 .173286E-3        0.0   348.5778    .703515    .650634   6.776926   6.267524     .10381
                         380.    .057351    .019138    .289657    .361285    .996665      .0116    .007433   1211.046   24.22092
                          0.0        0.0        0.0        0.0        1.0
 117500     .1175  300942.509  -404812.9 103870.393 300942.509  -404812.9 103870.393 300942.509  -404812.9 103870.392        0.0
                          0.0        0.0 289284.901 -360249.94  70965.037 303108.891 -414054.45 110945.554 649534.839 -431214.97
                   -218319.86 705755.411 -508683.29 -197072.12 705755.411 -508683.29 -197072.12 87.8644723 339.766334 -427.63081
                   .315019E-3  -.4102E-3 .109725E-3        0.0   348.5778    .703515    .650634   6.776926   6.267524     .10381
                         380.    .057351    .019138    .289657    .361285    .996665      .0116    .007433   1211.046   24.22092
                          0.0        0.0        0.0        0.0        1.0
 118000      .118  353995.913 -406202.63 52206.7149 353995.913 -406202.63 52206.7149 353995.914 -406202.63 52206.7142        0.0
                          0.0        0.0  325187.63 -312539.85 -12647.782 346793.795 -391601.04 44807.2447 637727.479 -299892.07
                   -337835.41 760198.541 -458409.34  -301789.2 760198.541 -458409.34  -301789.2  104.62499 239.409209  -344.0342
                    .36165E-3 -.42413E-3 .551902E-4        0.0   348.5778    .703515    .650634   6.776926   6.267524     .10381
                         380.    .057351    .019138    .289657    .361285    .996665      .0116    .007433   1211.046   24.22092
                          0.0        0.0        0.0        0.0        1.0
 118500     .1185  383035.212 -351799.26 -31235.954 383035.212 -351799.26 -31235.954 383035.213 -351799.26 -31235.955        0.0
                          0.0        0.0 351368.267 -292345.73 -59022.537 381939.485 -359505.12 -22434.368 643713.997 -233323.19
                    -410390.8 734834.471  -320563.3 -414271.17 734834.471  -320563.3 -414271.17  76.888966 234.671872 -311.56084
                   .386425E-3 -.35533E-3 -.31084E-4        0.0   348.5778    .703515    .650634   6.776926   6.267524     .10381
                         380.    .057351    .019138    .289657    .361285    .996665      .0116    .007433   1211.046   24.22092
                          0.0        0.0        0.0        0.0        1.0
 119000      .119  407623.277 -311681.59 -95941.691 407623.277 -311681.59 -95941.691 407623.277 -311681.59 -95941.691        0.0
                          0.0        0.0 383405.124 -284048.75 -99356.377 407680.557 -318556.98 -89123.572 667453.871 -184692.37
                    -482761.5 719304.862  -215739.9 -503564.97 719304.863  -215739.9 -503564.97 165.473983 -40.348462 -125.12552
                   .393231E-3 -.31475E-3  -.9308E-4        0.0   348.5778    .703515    .650634   6.776926   6.267524     .10381
                         380.    .057351    .019138    .289657    .361285    .996665      .0116    .007433   1211.046   24.22092
                          0.0        0.0        0.0        0.0        1.0
 119500     .1195  426768.542 -272119.81 -154648.73 426768.542 -272119.81 -154648.73 426768.542 -272119.81 -154648.73        0.0
                          0.0        0.0 384406.144  -204154.6 -180251.55  423383.18 -269764.92 -153618.26 588560.742 -23903.051
                   -564657.69 698888.353 -117471.08 -581417.27 698888.353 -117471.08 -581417.27 156.733201 -32.761746 -123.97146
                    .44691E-3 -.28841E-3  -.1585E-3        0.0   348.5778    .703515    .650634   6.776926   6.267524     .10381
                         380.    .057351    .019138    .289657    .361285    .996665      .0116    .007433   1211.046   24.22092
                          0.0        0.0        0.0        0.0        1.0
  % % % % % %   Suspended simulation;  plot data space exhausted;  SPY SPACE is required.   LIMBUF =  840000.
  % % % % % %   Suspended simulation;  plot data space exhausted;  SPY SPACE is required.   LIMBUF =  840000.
  +++  Time-sharing disabled.   Send  user-keyed interrupt to silence alarm.
   Current values.  INDBUF  INDBEG  LIMBUF  MFLUSH  NUMDCD  KCARD1  KCARD2
                    839994      50  840000    1007     230       1     231
Plot timespan now in memory (in sec) = 1.04985997E-01   1.19985000E-01
   ++++  Begin plot-data copy from memory to disk.   MFLUSH, INDBUF, N4, Tbeg,  Tend = 1008  839994       1  -1.00000E+00
1.00000E+19
 120000       .12  426969.062 -207524.84 -219444.22 426969.062 -207524.84 -219444.22 426969.062 -207524.84 -219444.22        0.0
                          0.0        0.0   421790.3  -232954.8  -188835.5 428660.705 -214330.35 -214330.35 654745.103 -44119.306
                    -610625.8 634493.905 11919.3745 -646413.28 634493.905 11919.3748 -646413.28  130.90571 10.2204904  -141.1262
                   .438418E-3 -.21037E-3 -.22808E-3        0.0   348.5778    .703515    .650634   6.776926   6.267524     .10381
                         380.    .057351    .019138    .289657    .361285    .996665      .0116    .007433   1211.046   24.22092
                          0.0        0.0        0.0        0.0        1.0

Extrema of output variables follow.   Order and column positioning are the same as for the preceding time-step loop output.
Variable maxima :  460647.688 487940.881 442723.564 460647.688 487940.881 442723.564 524054.368  487940.88 442723.564        0.0
                          0.0        0.0 464907.351 591712.706 507410.001 428660.705 428660.703 428660.703  866039.83 950930.173
                   738584.549 820411.641 801533.706 750981.358 887626.559 801533.707 750981.358 611.745311 724.173246  395.96002
                   .498236E-3 .525024E-3 .483811E-3        0.0   348.5778    .703515    .650634   6.776926   6.267524     .10381
                         380.    .057351    .019138    .289657    .361285    .996665      .0116    .007433   1211.046   24.22092
                          0.0        0.0        0.0        0.0        1.0
Times of maxima :     .080336    .067596    .093126    .080336    .067596    .093126    .059928    .067596    .093126        0.0
                          0.0        0.0    .079762    .066339    .074301        0.0    .006667    .113333    .079633    .066337
                      .111589    .077801    .085464    .111626    .059927    .085464    .111626    .059897    .081025    .088975
                      .080329      .0676    .093681        0.0        0.0        0.0        0.0        0.0        0.0        0.0
                          0.0        0.0        0.0        0.0        0.0        0.0        0.0        0.0        0.0        0.0
                          0.0        0.0        0.0        0.0        0.0
Variable minima :  -446061.89 -462528.63  -454498.4 -446061.89 -462528.63  -454498.4 -446061.89 -462528.63  -454498.4        0.0
                          0.0        0.0 -444086.34 -543190.43 -504823.82 -428660.71  -428660.7  -428660.7 -915752.16 -966804.74
                   -777945.67 -846633.67 -828951.41 -751570.08 -846633.67 -828951.41 -755955.38 -283.35469 -592.40729 -585.23067
                   -.48762E-3 -.50663E-3 -.49409E-3        0.0   348.5778    .703515    .650634   6.776926   6.267524     .10381
                         380.    .057351    .019138    .289657    .361285    .996665      .0116    .007433   1211.046   24.22092
                          0.0        0.0        0.0        0.0        1.0
Times of minima :     .070133    .116185     .08339    .070133    .116185     .08339    .070133    .116185     .08339        0.0
                          0.0        0.0    .109082    .095665    .082368        .01    .016667    .103333     .08769    .074338
                      .081733    .067597     .07545    .101622    .067597     .07545    .062463    .086359    .057523    .080994
                      .090538    .116193    .083337        0.0        0.0        0.0        0.0        0.0        0.0        0.0
                          0.0        0.0        0.0        0.0        0.0        0.0        0.0        0.0        0.0        0.0
                          0.0        0.0        0.0        0.0        0.0

Blank card terminating all plot cards.            |BLANK PLOT

Memory storage figures for the preceding, now-completed data case.  -------------------------------  Present   Program
A value of  "-9999"  indicates that no figure is available.         28-Feb-22  19:05:30              figure     limit  (name)
     Size List 1.   Number of electric network nodes.                                                   37      6000  (LBUS)
     Size List 2.   Number of electric network branches.                                                39     10000  (LBRNCH)
     Size List 3.   Number of data values in R, L, C tables.                                            45    192000  (LDATA)
     Size List 4.   Number of electric network sources.                                                  3       900  (LEXCT)
     Size List 5.   Storage for [Y] and triangularized [Y].   No. times =    3     Factors =    66     189    420000  (LYMAT)
     Size List 6.   Number of entries in switch table.                  No. flops = 18                  21      1200  (LSWTCH)
     Size List 7.   Number of distinct ALPHANUMERIC data names plus program SPY variables.              25     15000  (LSIZE7)
     Size List 8.   History points of distributed lines.                                              4244    120000  (LPAST)
     Size List 9.   Number of nonlinear elements.                                                        0      2250  (LNONL)
     Size List 10.  Points of nonlinear characteristics.                                                 0      3800  (LCHAR)
     Size List 11.  Number of Type-59 S.M. outputs.                                                      0       720  (LSMOUT)
     Size List 12.  Total number of EMTP output variables.                                              55      2000  (LSIZ12)
     Size List 13.  Working space for batch/SPY plotting.                                            -9999     72800  (LSIZ13)
     Size List 14.  S.M./U.M. connections to TACS.                                                   -9999       510  (LBSTAC)
     Size List 15.  Character storage in bytes for MODELS.                                            3296     90000  (LCTACS)
     Size List 16.  Total number of Type-59 S.M. masses.                                                 0       800  (LIMASS)
     Size List 17.  Number of Type-59 Synchronous machines.                                              0        90  (LSYN)
     Size List 18.  Branch and switch power/energy outputs.                                              0       254  (MAXPE)
     Size List 19.  Total floating-point TACS table space.                                              23    120000  (LTACST)
     Size List 20.  Non-copied recursive convolution data.                                               0    100000  (LFSEM)
     Size List 21.  Total modal/phase [T] matrix storage.                                                9      3000  (LFD)
     Size List 22.  Total recursive convolution history.                                                 0     15000  (LHIST)
     Size List 23.  Giant vectors for renumbering, phasors;  also extrema accumulation.                  93    192000  (LSIZ23)
     Size List 24.  Peak phases of compensation for data.                                                0       120  (LCOMP)
     Size List 25.  Total table space for all U.M usage.                                             -9999     45000  (LSPCUM)
     Size List 26.  Square of max number of coupled phases.                                              9    260000  (LSIZ26)
     Size List 27.  Maximum number of MODELS top variables.                                             44       600  (LSIZ27)
     Size List 28.  MODELS.  Total work space is divided into INTEGER and REAL.  1st, REAL:           1780    210000  (LRTACS)
                             Second  and last,  statistics for INTEGER work space.                    6838         0  (LITACS)
     Size List 29.  RAM disk used by "TAPSAV" table saving (limit is "LABCOM" size LTLABL).          -9999       600  (LSIZ29)
     Size List 30.  Taku Noda frequency-dependent circuits.                                              0        19  (LSIZ30)
Timing figures characterizing central processor (CP) solution speed.  ----------------------------   CP sec  Wait sec  Real sec
     Data input time (through blank card ending branches) ....                                       0.016     0.000     0.016
     Node renumbering and phasor solution  ....                                                      0.047     0.000     0.047
     After phasor solution, but before time-step loop  ....                                          0.000     0.000     0.000
     Integration of equations (time-step loop)  ....                                                 1.266     0.000     1.266
     Plotting or STATISTICS termination overlays ....                                                0.000     0.000     0.000
                                                                                                    ---------------------------
                                                                                          Totals      1.328     0.000     1.328

