   ---   236   cards of disk file read into card cache cells  1   onward.
 Comment card is ignored.      |C   LBUS  LBRNCH   LDATA   LEXCT   LYMAT  LSWTCH
 Limit CIDEAL cards =   200    |CARDS        200 { Limit of CIDEAL will be 2 mor
 1st card (Lists  1-10).       |    6000   10000  192000     900  420000    120
 Comment card is ignored.      |C LSMOUT  LSIZ12  LSIZ13  LBSTAC  LCTACS  LIMASS
 2nd card (Lists 11-20).       |     720    2000   72800     510   90000     80
 Comment card is ignored.      |C    LFD   LHIST  LSIZ23   NCOMP  LSPCUM  LSIZ26
 3rd card (Lists 21-30).       |    3000   15000  192000     120   45000  26000
 4th card (Lists 31-32).       |     200     300     { Optional card for Lists
 Comment card is ignored.      |C  LWORK  LMARTI
 Supplemental offsets.         |  840000     742
 <===> Done with  "/"-card sorting by data class.    Remember that the source file appears different from interpreted input data.
Alternative Transients Program (ATP),  GNU Linux or DOS.  All rights reserved by Can/Am user group of Portland, Oregon, USA.
 Date (dd-mth-yy) and time of day (hh.mm.ss) = 28-Feb-22  19:16:40   Name of disk plot file is  tp\bdfinalisima\energizacion582.pl4
Consult the 860-page ATP Rule Book of the Can/Am EMTP User Group in Portland,  Oregon, USA.  Source code date is 12 August 2008.
Total size of LABCOM tables = 10913436 INTEGER words.  31 VARDIM  List Sizes follow:  6002  10K  192K  900  420K  1200  15K
  120K  2250  3800  720  2K  72800  510  90K  800  90  254  120K  100K  3K  15K  192K  120  45K  260K  600  210K  1100  60  200
--------------------------------------------------+--------------------------------------------------------------------------------
Descriptive interpretation of input data cards.   |  Input data card images are shown below, all 80 columns, character by character
                                                  0         1         2         3         4         5         6         7         8
                                                  012345678901234567890123456789012345678901234567890123456789012345678901234567890
--------------------------------------------------+--------------------------------------------------------------------------------
Comment card.   NUMDCD = 1.                       |C data:D:\ATP\BDFINALISIMA\ENERGIZACION582.ATP
Marker card preceding new EMTP data case.         |BEGIN NEW DATA CASE
Comment card.   NUMDCD = 3.                       |C --------------------------------------------------------
Comment card.   NUMDCD = 4.                       |C Generated by ATPDRAW  febrero, lunes 28, 2022
Comment card.   NUMDCD = 5.                       |C A Bonneville Power Administration program
Comment card.   NUMDCD = 6.                       |C by H. K. Høidalen at SEfAS/NTNU - NORWAY 1994-2016
Comment card.   NUMDCD = 7.                       |C --------------------------------------------------------
Comment card.   NUMDCD = 8.                       |C  dT  >< Tmax >< Xopt >< Copt ><Epsiln>
Misc. data.     1.000E-06   1.200E-01   5.000E+01 |   1.E-6     .12     50.
Misc. data.    500    1  0  1  1  0  0  0  0  0   |     500       1       0       1       1       0       0       0       0
  ///  Warning.  Nonzero XOPT or COPT differs from the power frequency of  6.00000000E+01  Hz.   Did the user really want this?
No TACS data,  but MODELS data begins (next).     |MODELS
      Another ordinary MODELS data card.          |OUTPUT
      Another ordinary MODELS data card.          |  AnVol
      Another ordinary MODELS data card.          |  LONG
      Another ordinary MODELS data card.          |  R0F
      Another ordinary MODELS data card.          |  R1F
      Another ordinary MODELS data card.          |  X0F
      Another ordinary MODELS data card.          |  X1F
      Another ordinary MODELS data card.          |  RDIVX
      Another ordinary MODELS data card.          |  RINSER
      Another ordinary MODELS data card.          |  CLOSE1
      Another ordinary MODELS data card.          |  RPpos
      Another ordinary MODELS data card.          |  RPcero
      Another ordinary MODELS data card.          |  LPpos
      Another ordinary MODELS data card.          |  LPcero
      Another ordinary MODELS data card.          |  CPpos
      Another ordinary MODELS data card.          |  CPcero
      Another ordinary MODELS data card.          |  Xp
      Another ordinary MODELS data card.          |  CR
      Another ordinary MODELS data card.          |  SIMET
      Another ordinary MODELS data card.          |  ENC1
      Another ordinary MODELS data card.          |  ENC2
      Another ordinary MODELS data card.          |  ENC1AS
      Another ordinary MODELS data card.          |  ENC2AS
      Another ordinary MODELS data card.          |MODEL DEFAULT
      Another ordinary MODELS data card.          |DATA AnVol,LONG,R0F,R1F,X0F,X1F,RDIVX,RINSER,CLOSE1,RPpos,RPcero,LPpos,LPcero
      Another ordinary MODELS data card.          |OUTPUT o1,o2,o3, o4, o5, o6, o7, o8, o9, o10, o11, o12, o13
      Another ordinary MODELS data card.          |VAR o1,o2,o3, o4, o5, o6, o7, o8, o9, o10, o11, o12, o13
      Another ordinary MODELS data card.          |INIT
      Another ordinary MODELS data card.          |  o1:=AnVol
      Another ordinary MODELS data card.          |  o2:=LONG
      Another ordinary MODELS data card.          |  o3:=R0F
      Another ordinary MODELS data card.          |  o4:=R1F
      Another ordinary MODELS data card.          |  o5:=X0F
      Another ordinary MODELS data card.          |  O6:=X1F
      Another ordinary MODELS data card.          |  o7:=RDIVX
      Another ordinary MODELS data card.          |  o8:=RINSER
      Another ordinary MODELS data card.          |  o9:=CLOSE1
      Another ordinary MODELS data card.          |  o10:=RPpos
      Another ordinary MODELS data card.          |  o11:=RPcero
      Another ordinary MODELS data card.          |  o12:=LPpos
      Another ordinary MODELS data card.          |  o13:=LPcero
      Another ordinary MODELS data card.          |
      Another ordinary MODELS data card.          |ENDINIT
      Another ordinary MODELS data card.          |EXEC
      Another ordinary MODELS data card.          |ENDEXEC
      Another ordinary MODELS data card.          |ENDMODEL
      Another ordinary MODELS data card.          |MODEL DEFAULT1
      Another ordinary MODELS data card.          |DATA CPpos,CPcero,Xp,CR,SIMET,ENC1,ENC2,ENC1AS,ENC2AS
      Another ordinary MODELS data card.          |OUTPUT o1, o2, o3, o4, o5, o6, o7, o8, o9
      Another ordinary MODELS data card.          |VAR o1, o2, o3, o4, o5, o6, o7, o8, o9
      Another ordinary MODELS data card.          |INIT
      Another ordinary MODELS data card.          |  o1:=CPpos
      Another ordinary MODELS data card.          |  o2:=CPcero
      Another ordinary MODELS data card.          |  o3:=Xp
      Another ordinary MODELS data card.          |  o4:=CR
      Another ordinary MODELS data card.          |  o5:=SIMET
      Another ordinary MODELS data card.          |  o6:=ENC1
      Another ordinary MODELS data card.          |  o7:=ENC2
      Another ordinary MODELS data card.          |  o8:=ENC1AS
      Another ordinary MODELS data card.          |  o9:=ENC2AS
      Another ordinary MODELS data card.          |
      Another ordinary MODELS data card.          |ENDINIT
      Another ordinary MODELS data card.          |EXEC
      Another ordinary MODELS data card.          |ENDEXEC
      Another ordinary MODELS data card.          |ENDMODEL
      Another ordinary MODELS data card.          |USE DEFAULT AS DEFAULT
      Another ordinary MODELS data card.          |DATA
      Another ordinary MODELS data card.          |  AnVol:=      0.0
      Another ordinary MODELS data card.          |  LONG:= 185.4045
      Another ordinary MODELS data card.          |  R0F:= 1.505054
      Another ordinary MODELS data card.          |  R1F:= 1.594959
      Another ordinary MODELS data card.          |  X0F:= 8.727968
      Another ordinary MODELS data card.          |  X1F:= 9.249336
      Another ordinary MODELS data card.          |  RDIVX:=  0.17244
      Another ordinary MODELS data card.          |  RINSER:=     440.
      Another ordinary MODELS data card.          |  CLOSE1:= 0.047112
      Another ordinary MODELS data card.          |  RPpos:= 0.026039
      Another ordinary MODELS data card.          |  RPcero:= 0.178267
      Another ordinary MODELS data card.          |  LPpos:= 0.213047
      Another ordinary MODELS data card.          |  LPcero:=  1.37463
      Another ordinary MODELS data card.          |OUTPUT
      Another ordinary MODELS data card.          |  AnVol:=o1
      Another ordinary MODELS data card.          |  LONG:=o2
      Another ordinary MODELS data card.          |  R0F:=o3
      Another ordinary MODELS data card.          |  R1F:=o4
      Another ordinary MODELS data card.          |  X0F:=o5
      Another ordinary MODELS data card.          |  X1F:=o6
      Another ordinary MODELS data card.          |  RDIVX:=o7
      Another ordinary MODELS data card.          |  RINSER:=o8
      Another ordinary MODELS data card.          |  CLOSE1:=o9
      Another ordinary MODELS data card.          |  RPpos:=o10
      Another ordinary MODELS data card.          |  RPcero:=o11
      Another ordinary MODELS data card.          |  LPpos:=o12
      Another ordinary MODELS data card.          |  LPcero:=o13
      Another ordinary MODELS data card.          |ENDUSE
      Another ordinary MODELS data card.          |USE DEFAULT1 AS DEF
      Another ordinary MODELS data card.          |DATA
      Another ordinary MODELS data card.          |  CPpos:= 0.017692
      Another ordinary MODELS data card.          |  CPcero:= 0.007004
      Another ordinary MODELS data card.          |  Xp:= 1492.899
      Another ordinary MODELS data card.          |  CR:= 29.85797
      Another ordinary MODELS data card.          |  SIMET:=      0.0
      Another ordinary MODELS data card.          |  ENC1:=      0.0
      Another ordinary MODELS data card.          |  ENC2:=      0.0
      Another ordinary MODELS data card.          |  ENC1AS:=       1.
      Another ordinary MODELS data card.          |  ENC2AS:=      0.0
      Another ordinary MODELS data card.          |OUTPUT
      Another ordinary MODELS data card.          |  CPpos:=o1
      Another ordinary MODELS data card.          |  CPcero:=o2
      Another ordinary MODELS data card.          |  Xp:=o3
      Another ordinary MODELS data card.          |  CR:=o4
      Another ordinary MODELS data card.          |  SIMET:=o5
      Another ordinary MODELS data card.          |  ENC1:=o6
      Another ordinary MODELS data card.          |  ENC2:=o7
      Another ordinary MODELS data card.          |  ENC1AS:=o8
      Another ordinary MODELS data card.          |  ENC2AS:=o9
      Another ordinary MODELS data card.          |ENDUSE
      Another ordinary MODELS data card.          |RECORD
      Another ordinary MODELS data card.          |  DEFAULT.o1 AS AnVOL
      Another ordinary MODELS data card.          |  DEFAULT.o2 AS LONG
      Another ordinary MODELS data card.          |  DEFAULT.o3 AS R0F
      Another ordinary MODELS data card.          |  DEFAULT.o4 AS R1F
      Another ordinary MODELS data card.          |  DEFAULT.o5 AS X0F
      Another ordinary MODELS data card.          |  DEFAULT.o6 AS X1F
      Another ordinary MODELS data card.          |  DEFAULT.o7 AS RDIVX
      Another ordinary MODELS data card.          |  DEFAULT.o8 AS RINSER
      Another ordinary MODELS data card.          |  DEFAULT.o9 AS CLOSE1
      Another ordinary MODELS data card.          |  DEFAULT.o10 AS RPpos
      Another ordinary MODELS data card.          |  DEFAULT.o11 AS RPcero
      Another ordinary MODELS data card.          |  DEFAULT.o12 AS LPpos
      Another ordinary MODELS data card.          |  DEFAULT.o13 AS LPcero
      Another ordinary MODELS data card.          |  DEF.o1 AS CPpos
      Another ordinary MODELS data card.          |  DEF.o2 AS CPcero
      Another ordinary MODELS data card.          |  DEF.o3 AS Xp
      Another ordinary MODELS data card.          |  DEF.o4 AS CR
      Another ordinary MODELS data card.          |  DEF.o5 AS SIMET
      Another ordinary MODELS data card.          |  DEF.o6 AS ENC1
      Another ordinary MODELS data card.          |  DEF.o7 AS ENC2
      Another ordinary MODELS data card.          |  DEF.o8 AS ENC1AS
      Another ordinary MODELS data card.          |  DEF.o9 AS ENC2AS
Termination of data for Laurent Dube`s MODELS.    |ENDMODELS
Comment card.   NUMDCD = 153.                     |C        1         2         3         4         5         6         7         8
Comment card.   NUMDCD = 154.                     |C 345678901234567890123456789012345678901234567890123456789012345678901234567890
Optional blank card follows last of MODELS data.  |BLANK MODELS
Comment card.   NUMDCD = 156.                     |C < n1 >< n2 ><ref1><ref2>< R  >< L  >< C  >
Comment card.   NUMDCD = 157.                     |C < n1 >< n2 ><ref1><ref2>< R  >< A  >< B  ><Leng><><>0
1st of coupled R-L.   1.50510E+00  2.77820E-02    |51IFUENASB1A              1.50518.7279681456
2nd coil. 1.595E+00 2.944E-02 0.000E+00 0.000E+00 |52IFUENBSB1B               1.5959.2493364124
Zca, Zcc=-2.997E-02-5.532E-04 1.565E+00 2.889E-02 |53IFUENCSB1C
Series R-L-C.   1.000E+09  0.000E+00  0.000E+00   |  SB1A                      1.E9                                               0
Series R-L-C.   1.000E+09  0.000E+00  0.000E+00   |  SB1B                      1.E9                                               0
Series R-L-C.   1.000E+09  0.000E+00  0.000E+00   |  SB1C                      1.E9                                               0
Series R-L-C.   2.986E+01  4.752E+00  0.000E+00   |  RSNSHA                  29.8581492.9                                         0
Series R-L-C.   2.986E+01  4.752E+00  0.000E+00   |  RSNSHB                  29.8581492.9                                         0
Series R-L-C.   2.986E+01  4.752E+00  0.000E+00   |  RSNSHC                  29.8581492.9                                         0
Series R-L-C.   1.000E+09  0.000E+00  0.000E+00   |  RSNNHA                    1.E9                                               0
Series R-L-C.   1.000E+09  0.000E+00  0.000E+00   |  RSNNHB                    1.E9                                               0
Series R-L-C.   1.000E+09  0.000E+00  0.000E+00   |  RSNNHC                    1.E9                                               0
Series R-L-C.   1.000E+09  0.000E+00  0.000E+00   |  SE2A                      1.E9                                               0
Series R-L-C.   1.000E+09  0.000E+00  0.000E+00   |  SE2B                      1.E9                                               0
Series R-L-C.   1.000E+09  0.000E+00  0.000E+00   |  SE2C                      1.E9                                               0
Series R-L-C.   2.500E+02  0.000E+00  3.000E-10   |  X0001B                    250.       .0003                                   0
Series R-L-C.   2.500E+02  0.000E+00  3.000E-10   |  X0002B                    250.       .0003                                   0
Series R-L-C.   1.000E-06  0.000E+00  0.000E+00   |  X0001ALN1A               1.E-6                                               0
Series R-L-C.   1.000E-06  0.000E+00  0.000E+00   |  SB1A  X0002A             1.E-6                                               0
Series R-L-C.   1.000E-06  0.000E+00  0.000E+00   |  X0001BLN1B               1.E-6                                               0
Series R-L-C.   1.000E-06  0.000E+00  0.000E+00   |  SB1B  X0002B             1.E-6                                               0
Series R-L-C.   1.000E-06  0.000E+00  0.000E+00   |  X0001CLN1C               1.E-6                                               0
Series R-L-C.   1.000E-06  0.000E+00  0.000E+00   |  SB1C  X0002C             1.E-6                                               0
Series R-L-C.   4.400E+02  0.000E+00  0.000E+00   |  XX0005X0002A              440.                                               0
Series R-L-C.   4.400E+02  0.000E+00  0.000E+00   |  XX0003X0002B              440.                                               0
Series R-L-C.   4.400E+02  0.000E+00  0.000E+00   |  XX0004X0002C              440.                                               0
Series R-L-C.   2.500E+02  0.000E+00  3.000E-10   |  X0001A                    250.       .0003                                   0
Series R-L-C.   1.000E+06  0.000E+00  0.000E+00   |  X0001AX0002A              1.E6                                               0
Series R-L-C.   1.000E+06  0.000E+00  0.000E+00   |  X0001BX0002B              1.E6                                               0
Series R-L-C.   1.000E+06  0.000E+00  0.000E+00   |  X0001CX0002C              1.E6                                               0
Series R-L-C.   2.500E+02  0.000E+00  3.000E-10   |  X0002C                    250.       .0003                                   0
Series R-L-C.   2.500E+02  0.000E+00  3.000E-10   |  X0002A                    250.       .0003                                   0
Series R-L-C.   2.500E+02  0.000E+00  3.000E-10   |  X0001C                    250.       .0003                                   0
Series R-L-C.   1.250E+02  0.000E+00  6.000E-10   |  X0001AX0002A              125.       .0006                                   0
Series R-L-C.   1.250E+02  0.000E+00  6.000E-10   |  X0001BX0002B              125.       .0006                                   0
Series R-L-C.   1.250E+02  0.000E+00  6.000E-10   |  X0001CX0002C              125.       .0006                                   0
 1.783E-01 1.375E+00 7.000E-03 7.906E+02 1.026E-03|-1LN1A  VFF2A             .178271.3746  .007 185.4 0 0                         0
 2.604E-02 2.130E-01 1.769E-02 1.958E+02 6.422E-04|-2LN1B  VFF2B             .02604.21305.01769 185.4 0 0                         0
3rd or later transposed distributed phase.        |-3LN1C  VFF2C                                                                  0
Blank card ending branches.  IBR, NTOT = 39  31   |BLANK BRANCH
Comment card.   NUMDCD = 198.                     |C < n 1>< n 2>< Tclose ><Top/Tde ><   Ie   ><Vf/CLOP ><  type  >
Switch.  -1.00E+00  1.00E+01  0.00E+00  0.00E+00  |  LN1A  COMPA        -1.       10.                                             0
Switch.  -1.00E+00  1.00E+01  0.00E+00  0.00E+00  |  LN1B  COMPB        -1.       10.                                             0
Switch.  -1.00E+00  1.00E+01  0.00E+00  0.00E+00  |  LN1C  COMPC        -1.       10.                                             0
Switch.  -1.00E+00  1.00E+01  0.00E+00  0.00E+00  |  VFF2A RSNNHA       -1.       10.                                             0
Switch.  -1.00E+00  1.00E+01  0.00E+00  0.00E+00  |  VFF2B RSNNHB       -1.       10.                                             0
Switch.  -1.00E+00  1.00E+01  0.00E+00  0.00E+00  |  VFF2C RSNNHC       -1.       10.                                             0
Switch.   2.00E+00 -1.00E+00  0.00E+00  0.00E+00  |  VFF2A SE2A          2.       -1.                                             0
Switch.   2.00E+00 -1.00E+00  0.00E+00  0.00E+00  |  VFF2B SE2B          2.       -1.                                             0
Switch.   2.00E+00 -1.00E+00  0.00E+00  0.00E+00  |  VFF2C SE2C          2.       -1.                                             0
Switch.   4.71E-02  1.00E+03  0.00E+00  0.00E+00  |  X0001BXX0003  .0471116      1.E3                                             0
Switch.   4.71E-02  1.00E+03  0.00E+00  0.00E+00  |  X0001CXX0004  .0471116      1.E3                                             0
Switch.   5.46E-02  1.00E+03  0.00E+00  0.00E+00  |  XX0005X0002A  .0546116      1.E3                                             0
Switch.   5.46E-02  1.00E+03  0.00E+00  0.00E+00  |  XX0003X0002B  .0546116      1.E3                                             0
Switch.   5.46E-02  1.00E+03  0.00E+00  0.00E+00  |  XX0004X0002C  .0546116      1.E3                                             0
Switch.   4.71E-02  1.00E+03  0.00E+00  0.00E+00  |  X0001AXX0005  .0471116      1.E3                                             0
Permanently-closed switch used for metering.      |  VFUENAIFUENA                                        MEASURING                1
Permanently-closed switch used for metering.      |  VFUENBIFUENB                                        MEASURING                1
Permanently-closed switch used for metering.      |  VFUENCIFUENC                                        MEASURING                1
Permanently-closed switch used for metering.      |  COMPA RSNSHA                                        MEASURING                1
Permanently-closed switch used for metering.      |  COMPB RSNSHB                                        MEASURING                1
Permanently-closed switch used for metering.      |  COMPC RSNSHC                                        MEASURING                1
Blank card ending switches.   KSWTCH = 21.        |BLANK SWITCH
Comment card.   NUMDCD = 221.                     |C < n 1><>< Ampl.  >< Freq.  ><Phase/T0><   A1   ><   T1   >< TSTART >< TSTOP  >
Source.   4.29E+05  5.00E+01  0.00E+00 -1.00E+00  |14VFUENA  428660.705       50.                                     -1.      100.
Source.   4.29E+05  5.00E+01 -1.20E+02 -1.00E+00  |14VFUENB  428660.705       50.     -120.                           -1.      100.
Source.   4.29E+05  5.00E+01 -2.40E+02 -1.00E+00  |14VFUENC  428660.705       50.     -240.                           -1.      100.
Blank card ends electric sources.  KCONST = 3     |BLANK SOURCE
Pi-equivalent branches of distributed circuits are added to the table of List Size 3 between indices  40   and  45.

Sinusoidal steady-state phasor solution, branch by branch.   All flows are away from a bus,  and the real part,  magnitude,  or  "P"
is printed above the imaginary part,  the angle,  or  "Q".   The first solution frequency  =  5.00000000E+01  Hertz.
  Bus K                        Phasor  node  voltage              Phasor  branch  current               Power flow       Power loss
             Bus M         Rectangular            Polar          Rectangular            Polar            P  and  Q        P  and  Q

 IFUENA                    428660.705       428660.705       .4285916243457  .44569342821721      91860.193924561  .15841749898454
                                  0.0              0.0      .12227776370513       15.9235190      -26207.83619783        0.9186563

            SB1A      428661.15238453  428661.15240471      -.4285916243457  .44569342821721      -91860.03550706
                       -4.15922115022       -0.0005559      -.1222777637051     -164.0764810      26208.754854097

 IFUENB                  -214330.3525       428660.705      -.1084001624756  .44569342821967      91860.193924386  .15841749898678
                      -371231.0601341     -120.0000000      -.4323101163904     -104.0764810      -26207.83620036        0.9186563

            SB1B      -214334.1781834  428661.15240471      .10840016247562  .44569342821967      -91860.03550689
                      -371229.3679699     -120.0005559      .43231011639037       75.9235190      26208.754856628

 IFUENC                  -214330.3525       428660.705      -.3201914618677   .4456934282201      91860.193924631  .15841749898723
                      371231.06013415      120.0000000      .31003235267564      135.9235190      -26207.83619984        0.9186563

            SB1C      -214326.9742011  428661.15240471      .32019146186773   .4456934282201      -91860.03550713
                      371233.52719109      119.9994441      -.3100323526756      -44.0764810      26208.754856108

 SB1A                 428661.15238453  428661.15240471      .42866115238E-3   .4286611524E-3      91.875191790467  91.875191790467
                       -4.15922115022       -0.0005559       -.415922115E-8       -0.0005559      -.780329103E-19        0.0000000

            TERRA                 0.0              0.0      -.4286611524E-3   .4286611524E-3                  0.0
                                  0.0              0.0      .41592211502E-8      179.9994441                  0.0

 SB1B                 -214334.1781834  428661.15240471      -.2143341782E-3   .4286611524E-3      91.875191790467  91.875191790467
                      -371229.3679699     -120.0005559       -.371229368E-3     -120.0005559      .6245004514E-15        0.0000000

            TERRA                 0.0              0.0      .21433417818E-3   .4286611524E-3                  0.0
                                  0.0              0.0      .37122936797E-3       59.9994441                  0.0

 SB1C                 -214326.9742011  428661.15240471      -.2143269742E-3   .4286611524E-3      91.875191790467  91.875191790467
                      371233.52719109      119.9994441      .37123352719E-3      119.9994441      .8951173136E-15        0.0000000

            TERRA                 0.0              0.0       .2143269742E-3   .4286611524E-3                  0.0
                                  0.0              0.0      -.3712335272E-3      -60.0005559                  0.0

 RSNSHA               264.63699481526  1161.2747550773      -.7535512426041  .77770953833445      9.0295388092987  9.0295388092987
                       -1130.71938064      -76.8274204      -.1923347362964     -165.6816576      451.47694046493      451.4769405

            TERRA                 0.0              0.0      .75355124260409  .77770953833445                  0.0
                                  0.0              0.0      .19233473629642       14.3183424                  0.0

 RSNSHB               -1111.550205593  1161.2747550772      .21020885363916  .77770953833444      9.0295388092984  9.0295388092984
                       336.1773300288      163.1725796      .74876188729668       74.3183424      451.47694046492      451.4769405

            TERRA                 0.0              0.0      -.2102088536392  .77770953833444                  0.0
                                  0.0              0.0      -.7487618872967     -105.6816576                  0.0

 RSNSHC                 846.913210778  1161.2747550772      .54334238896493  .77770953833445      9.0295388092986  9.0295388092986
                      794.54205061118       43.1725796      -.5564271510003      -45.6816576      451.47694046493      451.4769405

            TERRA                 0.0              0.0      -.5433423889649  .77770953833445                  0.0
                                  0.0              0.0      .55642715100026      134.3183424                  0.0

 RSNNHA               267.20337086266  1185.3104732012      .26720337086E-6  .11853104732E-5      .70248045894E-3  .70248045894E-3
                       -1154.80010239      -76.9718930      -.1154800102E-5      -76.9718930      -.179332757E-19        0.0000000

            TERRA                 0.0              0.0      -.2672033709E-6  .11853104732E-5                  0.0
                                  0.0              0.0      .11548001024E-5      103.0281070                  0.0

 RSNNHB               -1133.687910394  1185.3104732012       -.113368791E-5  .11853104732E-5      .70248045894E-3  .70248045894E-3
                       345.9951440511      163.0281070      .34599514405E-6      163.0281070      -.555865372E-21        0.0000000

            TERRA                 0.0              0.0      .11336879104E-5  .11853104732E-5                  0.0
                                  0.0              0.0      -.3459951441E-6      -16.9718930                  0.0

 RSNNHC                866.4845395313  1185.3104732012      .86648453953E-6  .11853104732E-5      .70248045894E-3  .70248045894E-3
                      808.80495833892       43.0281070      .80880495834E-6       43.0281070      -.145054392E-19        0.0000000

            TERRA                 0.0              0.0      -.8664845395E-6  .11853104732E-5                  0.0
                                  0.0              0.0      -.8088049583E-6     -136.9718930                  0.0

 X0001B               -1111.550205736  1161.2747550951      -.3168643523E-4  .10944756715E-3      .14973462444E-5  .14973462444E-5
                      336.17732961715      163.1725796      -.1047603922E-3     -106.8287704      -.0635493483523       -0.0635493

            TERRA                 0.0              0.0      .31686435229E-4  .10944756715E-3                  0.0
                                  0.0              0.0      .10476039222E-3       73.1712296                  0.0

 X0002B               -214334.1781833  428661.15240428      .03498706767332  .04040036180696       .2040236542665   .2040236542665
                      -371229.3679695     -120.0005559      -.0202013447512      -30.0019059      -8659.032822458    -8659.0328225

            TERRA                 0.0              0.0      -.0349870676733  .04040036180696                  0.0
                                  0.0              0.0      .02020134475118      149.9980941                  0.0

 X0001A               264.63699524334  1161.2747550951      .42807948830159  .43583468914518      10.366743824484  .94975938131E-7
                      -1130.719380558      -76.8274204      .08185247679648       10.8247868      -252.8494836773              0.0

            LN1A      264.63699481526  1161.2747550773      -.4280794883016  .43583468914518      -10.36674372951
                       -1130.71938064      -76.8274204      -.0818524767965     -169.1752132      252.84948367733

 SB1A                 428661.15238453  428661.15240471      .42817555367947  .44529333835734      91770.858841424  .99143079524E-7
                       -4.15922115022       -0.0005559      .12227776746698       15.9382072      -26208.75479511        0.0000000

            X0002A     428661.1523841  428661.15240428      -.4281755536795  .44529333835734      -91770.85884132
                      -4.159221272498       -0.0005559       -.122277767467     -164.0617928      26208.754795112

 X0001B               -1111.550205736  1161.2747550951      -.1431533291907    .435834666004       10.36669223735  .94975928046E-7
                      336.17732961715      163.1725796      -.4116539571442     -109.1752016      -252.8494723445              0.0

            LN1B      -1111.550205593  1161.2747550772      .14315332919068    .435834666004      -10.36669214237
                       336.1773300288      163.1725796      .41165395714415       70.8247984      252.84947234446

 SB1B                 -214334.1781834  428661.15240471      -.1081789378077  .44529911843381      91771.164730275  .99145651689E-7
                      -371229.3679699     -120.0005559      -.4319590516388     -104.0598575      -26212.19481595              0.0

            X0002B    -214334.1781833  428661.15240428      .10817893780768  .44529911843381      -91771.16473018
                      -371229.3679695     -120.0005559      .43195905163884       75.9401425      26212.194815953

 X0001C               846.91321049307  1161.2747550951      -.2849260454241  .43583472245176       10.36677894005  .94975952651E-7
                      794.54205094098       43.1725796      .32980153719109      130.8247790      -252.8495015929              0.0

            LN1C        846.913210778  1161.2747550772      .28492604542407  .43583472245176      -10.36677884507
                      794.54205061118       43.1725796      -.3298015371911      -49.1752210       252.8495015929

 SB1C                 -214326.9742011  428661.15240471      -.3199966158718  .44529776028504       91770.92303659  .99145040622E-7
                      371233.52719109      119.9994441      .30966475605965      135.9400590      -26211.98110816        0.0000000

            X0002C    -214326.9742008  428661.15240428      .31999661587179  .44529776028504      -91770.92303649
                      371233.52719078      119.9994441      -.3096647560596      -44.0599410      26211.981108157

 XX0005                428661.1523841  428661.15240428                  0.0              0.0                  0.0              0.0
                      -4.159221272498       -0.0005559                  0.0              0.0                  0.0              0.0

            X0002A     428661.1523841  428661.15240428                  0.0              0.0                  0.0
                      -4.159221272498       -0.0005559                  0.0              0.0                  0.0

 XX0003               -214334.1781833  428661.15240428                  0.0              0.0                  0.0              0.0
                      -371229.3679695     -120.0005559                  0.0              0.0                  0.0              0.0

            X0002B    -214334.1781833  428661.15240428                  0.0              0.0                  0.0
                      -371229.3679695     -120.0005559                  0.0              0.0                  0.0

 XX0004               -214326.9742008  428661.15240428                  0.0              0.0                  0.0              0.0
                      371233.52719078      119.9994441                  0.0              0.0                  0.0              0.0

            X0002C    -214326.9742008  428661.15240428                  0.0              0.0                  0.0
                      371233.52719078      119.9994441                  0.0              0.0                  0.0

 X0001A               264.63699524334  1161.2747550951      .10656837859E-3  .10944756715E-3      .14973462444E-5  .14973462444E-5
                      -1130.719380558      -76.8274204      .24938938245E-4       13.1712296      -.0635493483523       -0.0635493

            TERRA                 0.0              0.0      -.1065683786E-3  .10944756715E-3                  0.0
                                  0.0              0.0      -.2493893825E-4     -166.8287704                  0.0

 X0001A               264.63699524334  1161.2747550951      -.4283965153889  .42839799665161      -56.04787159988  91762.421767555
                      -1130.719380558      -76.8274204      -.0011265601593     -179.8493289      242.34718600464        0.0000000

            X0002A     428661.1523841  428661.15240428      .42839651538886  .42839799665161      91818.469639155
                      -4.159221272498       -0.0005559      .00112656015929        0.1506711      -242.3471860046

 X0001B               -1111.550205736  1161.2747550951       .2132226279776  .42839799665161      -56.04787159988  91762.421767555
                      336.17732961715      163.1725796      .37156554529913       60.1506711      242.34718600463        0.0000000

            X0002B    -214334.1781833  428661.15240428      -.2132226279776  .42839799665161      91818.469639155
                      -371229.3679695     -120.0005559      -.3715655452991     -119.8493289      -242.3471860046

 X0001C               846.91321049307  1161.2747550951      .21517388741126  .42839799665161      -56.04787159988  91762.421767555
                      794.54205094098       43.1725796      -.3704389851398      -59.8493289      242.34718600463        0.0000000

            X0002C    -214326.9742008  428661.15240428      -.2151738874113  .42839799665161      91818.469639155
                      371233.52719078      119.9994441      .37043898513984      120.1506711      -242.3471860046

 X0002C               -214326.9742008  428661.15240428      -.0349884115818  .04040036180696      .20402365426613  .20402365426613
                      371233.52719078      119.9994441      -.0201990170334     -150.0019059      -8659.032822458    -8659.0328225

            TERRA                 0.0              0.0      .03498841158179  .04040036180696                  0.0
                                  0.0              0.0      .02019901703343       29.9980941                  0.0

 X0002A                428661.1523841  428661.15240428      .13439084682E-5  .04040036180696       .2040236542667   .2040236542667
                      -4.159221272498       -0.0005559      .04040036178461       89.9980941      -8659.032822458    -8659.0328225

            TERRA                 0.0              0.0      -.1343908468E-5  .04040036180696                  0.0
                                  0.0              0.0      -.0404003617846      -90.0019059                  0.0

 X0001C               846.91321049307  1161.2747550951      -.7488194336E-4  .10944756715E-3      .14973462444E-5  .14973462444E-5
                      794.54205094098       43.1725796      .79821453974E-4      133.1712296      -.0635493483523       -0.0635493

            TERRA                 0.0              0.0      .74881943357E-4  .10944756715E-3                  0.0
                                  0.0              0.0      -.7982145397E-4      -46.8287704                  0.0

 X0001A               264.63699524334  1161.2747550951      .21044894024E-3  .08075111992318      45.681119398215    .407546460553
                      -1130.719380558      -76.8274204      -.0807508456927      -89.8506789      10.565851236069   -17296.8089964

            X0002A     428661.1523841  428661.15240428      -.2104489402E-3  .08075111992318      -45.27357293766
                      -4.159221272498       -0.0005559      .08075084569273       90.1493211      -17307.37484767

 X0001B               -1111.550205736  1161.2747550951      -.0700375082171  .08075111992318      45.681119398214   .4075464605522
                      336.17732961715      163.1725796      .04019316871792      150.1493211       10.56585123607   -17296.8089964

            X0002B    -214334.1781833  428661.15240428       .0700375082171  .08075111992318      -45.27357293766
                      -371229.3679695     -120.0005559      -.0401931687179      -29.8506789      -17307.37484767

 X0001C               846.91321049307  1161.2747550951      .06982705927687  .08075111992318      45.681119398214  .40754646055383
                      794.54205094098       43.1725796      .04055767697481       30.1493211       10.56585123607   -17296.8089964

            X0002C    -214326.9742008  428661.15240428      -.0698270592769  .08075111992318      -45.27357293766
                      371233.52719078      119.9994441      -.0405576769748     -149.8506789      -17307.37484767

 LN1A                 264.63699481526  1161.2747550773      1.1816307406029  1.2130250738171      1.3372116185535  1.3365091380948
                       -1130.71938064      -76.8274204      .27418720351454       13.0637998      -704.3264283573     -704.3264284

            VFF2A     267.20337086266  1185.3104732012      -.2672033693E-6  .11853104728E-5      -.7024804587E-3
                       -1154.80010239      -76.9718930      .11548001023E-5      103.0281069       -.88515432E-12

 LN1B                 -1111.550205593  1161.2747550772      -.3533622866652   1.213025073817      1.3372116185535  1.3365091380953
                       336.1773300288      163.1725796      -1.160415841012     -106.9362002      -704.3264283573     -704.3264284

            VFF2B     -1133.687910394  1185.3104732012      .11336879106E-5   .1185310472E-5      -.7024804582E-3
                       345.9951440511      163.0281070      -.3459951391E-6      -16.9718928        .28597476E-11

 LN1C                   846.913210778  1161.2747550772      -.8282684539377  1.2130250738171       1.337211618555  1.3365091380935
                      794.54205061118       43.1725796      .88622863749745      133.0637998      -704.3264283573     -704.3264284

            VFF2C      866.4845395313  1185.3104732012      -.8664845423E-6  .11853104775E-5      -.7024804615E-3
                      808.80495833892       43.0281070      -.8088049617E-6     -136.9718930      .3614364908E-12
     Total network loss  P-loss  by summing injections =   2.755972687843E+05

Output for steady-state phasor switch currents.
      Node-K    Node-M            I-real            I-imag            I-magn          Degrees        Power            Reactive
      LN1A      COMPA        -7.53551279E-01   -1.92334583E-01    7.77709535E-01    -165.6817    9.02944708E+00    4.51476941E+02
      LN1B      COMPB         2.10209268E-01    7.48761831E-01    7.77709597E-01      74.3183    9.02929891E+00    4.51476979E+02
      LN1C      COMPC         5.43342252E-01   -5.56427126E-01    7.77709424E-01     -45.6817    9.02949097E+00    4.51476875E+02
      VFF2A     RSNNHA        2.67203372E-07   -1.15480010E-06    1.18531047E-06     -76.9719    7.02480459E-04   -8.87940903E-13
      VFF2B     RSNNHB       -1.13368791E-06    3.45995139E-07    1.18531047E-06     163.0281    7.02480459E-04   -2.93137572E-12
      VFF2C     RSNNHC        8.66484542E-07    8.08804962E-07    1.18531048E-06      43.0281    7.02480461E-04   -5.57956253E-13
      VFF2A     SE2A              Open              Open              Open             Open          Open              Open
      VFF2B     SE2B              Open              Open              Open             Open          Open              Open
      VFF2C     SE2C              Open              Open              Open             Open          Open              Open
      X0001B    XX0003            Open              Open              Open             Open          Open              Open
      X0001C    XX0004            Open              Open              Open             Open          Open              Open
      XX0005    X0002A            Open              Open              Open             Open          Open              Open
      XX0003    X0002B            Open              Open              Open             Open          Open              Open
      XX0004    X0002C            Open              Open              Open             Open          Open              Open
      X0001A    XX0005            Open              Open              Open             Open          Open              Open
      VFUENA    IFUENA        4.28591624E-01    1.22277764E-01    4.45693428E-01      15.9235    9.18601939E+04   -2.62078362E+04
      VFUENB    IFUENB       -1.08400162E-01   -4.32310116E-01    4.45693428E-01    -104.0765    9.18601939E+04   -2.62078362E+04
      VFUENC    IFUENC       -3.20191462E-01    3.10032353E-01    4.45693428E-01     135.9235    9.18601939E+04   -2.62078362E+04
      COMPA     RSNSHA       -7.53551279E-01   -1.92334583E-01    7.77709535E-01    -165.6817    9.02944708E+00    4.51476941E+02
      COMPB     RSNSHB        2.10209268E-01    7.48761831E-01    7.77709597E-01      74.3183    9.02929891E+00    4.51476979E+02
      COMPC     RSNSHC        5.43342252E-01   -5.56427126E-01    7.77709424E-01     -45.6817    9.02949097E+00    4.51476875E+02

Solution at nodes with known voltage.   Nodes that are shorted together by switches are shown as a group of names, with the printed
result applying to the composite group.   The entry "MVA" is  SQRT( P**2 + Q**2 )  in units of power,  while  "P.F."  is the
associated power factor.
              Node                Source  node  voltage             Injected  source  current              Injected  source  power
              name         Rectangular            Polar          Rectangular            Polar            P  and  Q    MVA and P.F.

               VFUENA
              IFUENA       428660.705       428660.705      .42859162434625  .44569342821909       91860.19392468  95525.629577132
                                  0.0              0.0      .12227776371004       15.9235190      -26207.83619889        0.9616288

               VFUENB
              IFUENB     -214330.3525       428660.705       -.108400162479  .44569342821972        91860.1939246  95525.629577267
                      -371231.0601341     -120.0000000      -.4323101163896     -104.0764810      -26207.83619966        0.9616288

               VFUENC
              IFUENC     -214330.3525       428660.705      -.3201914618641  .44569342821658         91860.193924  95525.629576593
                      371231.06013415      120.0000000      .31003235267435      135.9235190       -26207.8361993        0.9616288

  +++  Node  "COMPC "  has no connected linear branches.  Add (to ground) the conductance  G = 1.00000000E-18  mhos.
  +++  Node  "COMPB "  has no connected linear branches.  Add (to ground) the conductance  G = 1.00000000E-18  mhos.
  +++  Node  "COMPA "  has no connected linear branches.  Add (to ground) the conductance  G = 1.00000000E-18  mhos.
Card of names for time-step loop output.          |  LN1A  LN1B  LN1C  COMPA COMPB COMPC SB1A  SB1B  SB1C  SE2A  SE2B  SE2C  VFF2A
Card of names for time-step loop output.          |  VFF2B VFF2C IFUENAIFUENBIFUENC
Card of names for time-step loop output.          |-5VFF2A VFF2B VFF2B VFF2C VFF2C VFF2A LN1A  LN1B  LN1B  LN1C  LN1C  LN1A
Card of names for time-step loop output.          |-5SB1A  SB1B  SB1B  SB1C  SB1C  SB1A
Blank card ending requests for output variables.  |BLANK OUTPUT

Column headings for the  55   EMTP output variables follow.  These are divided among the 5 possible classes as follows ....
  First  27     output variables are electric-network voltage differences (upper voltage minus lower voltage);
  Next   6     output variables are branch currents (flowing from the upper node to the lower node);
  Next   22     output variables belong to MODELS (with "MODELS" an internally-added upper name of pair).
   Step      Time      LN1A       LN1B       LN1C       COMPA      COMPB      COMPC      SB1A       SB1B       SB1C       SE2A
 

                       SE2B       SE2C       VFF2A      VFF2B      VFF2C      IFUENA     IFUENB     IFUENC     VFF2A      VFF2B
                                                                                                               VFF2B      VFF2C

                       VFF2C      LN1A       LN1B       LN1C       SB1A       SB1B       SB1C       VFUENA     VFUENB     VFUENC
                       VFF2A      LN1B       LN1C       LN1A       SB1B       SB1C       SB1A       IFUENA     IFUENB     IFUENC

                       COMPA      COMPB      COMPC      MODELS     MODELS     MODELS     MODELS     MODELS     MODELS     MODELS
                       RSNSHA     RSNSHB     RSNSHC     ANVOL      LONG       R0F        R1F        X0F        X1F        RDIVX

                       MODELS     MODELS     MODELS     MODELS     MODELS     MODELS     MODELS     MODELS     MODELS     MODELS
                       RINSER     CLOSE1     RPPOS      RPCERO     LPPOS      LPCERO     CPPOS      CPCERO     XP         CR

                       MODELS     MODELS     MODELS     MODELS     MODELS
                       SIMET      ENC1       ENC2       ENC1AS     ENC2AS
 ***      Phasor I(0) = -7.5355128E-01                     Switch  "LN1A  "  to  "COMPA "  closed in the steady-state.
 ***      Phasor I(0) =  2.1020927E-01                     Switch  "LN1B  "  to  "COMPB "  closed in the steady-state.
 ***      Phasor I(0) =  5.4334225E-01                     Switch  "LN1C  "  to  "COMPC "  closed in the steady-state.
 ***      Phasor I(0) =  2.6720337E-07                     Switch  "VFF2A "  to  "RSNNHA"  closed in the steady-state.
 ***      Phasor I(0) = -1.1336879E-06                     Switch  "VFF2B "  to  "RSNNHB"  closed in the steady-state.
 ***      Phasor I(0) =  8.6648454E-07                     Switch  "VFF2C "  to  "RSNNHC"  closed in the steady-state.
 ***      Phasor I(0) =  4.2859162E-01                     Switch  "VFUENA"  to  "IFUENA"  closed in the steady-state.
 ***      Phasor I(0) = -1.0840016E-01                     Switch  "VFUENB"  to  "IFUENB"  closed in the steady-state.
 ***      Phasor I(0) = -3.2019146E-01                     Switch  "VFUENC"  to  "IFUENC"  closed in the steady-state.
 ***      Phasor I(0) = -7.5355128E-01                     Switch  "COMPA "  to  "RSNSHA"  closed in the steady-state.
 ***      Phasor I(0) =  2.1020927E-01                     Switch  "COMPB "  to  "RSNSHB"  closed in the steady-state.
 ***      Phasor I(0) =  5.4334225E-01                     Switch  "COMPC "  to  "RSNSHC"  closed in the steady-state.
      0       0.0  264.636995 -1111.5502 846.913211 264.636995 -1111.5502 846.913211 428661.152 -214334.18 -214326.97        0.0
                          0.0        0.0 267.203371 -1133.6879  866.48454 428660.705 -214330.35 -214330.35 1400.89128 -2000.1724
                   599.281169  1376.1872 -1958.4634 582.276216 642995.331 -7.2039824 -642988.13 .428591624 -.10840016 -.32019146
                   -.75355128 .210209268 .543342252        0.0   185.4045   1.505054   1.594959   8.727968   9.249336     .17244
                         440.    .047112    .026039    .178267    .213047    1.37463    .017692    .007004   1492.899   29.85797
                          0.0        0.0        0.0        1.0        0.0
    500     .5E-3  438.262297 -1150.4549 712.192562 438.262297 -1150.4549 712.192562 423384.275  -153622.3 -269761.97        0.0
                          0.0        0.0 444.564187 -1173.8559 729.291701  423383.18 -153618.26 -269764.92 1618.42008 -1903.1476
                   284.727514 1588.71716 -1862.6474 273.930265 577006.577 116139.671 -693146.25   .4041831 -.03943608 -.36474702
                   -.71418599 .090488671 .623697317        0.0   185.4045   1.505054   1.594959   8.727968   9.249336     .17244
                         440.    .047112    .026039    .178267    .213047    1.37463    .017692    .007004   1492.899   29.85797
                          0.0        0.0        0.0        1.0        0.0
   1000     .1E-2   601.09624 -1161.0316 559.935317  601.09624 -1161.0316 559.935317 407682.267 -89127.733 -318554.53        0.0
                          0.0        0.0  610.97858 -1185.1197 574.141161 407680.557 -89123.572 -318556.98 1796.09832 -1759.2609
                   -36.837418  1762.1278 -1720.9669 -41.160923    496810. 229426.801  -726236.8 .369826122 .030497103 -.40032323
                   -.65723505 -.03145968 .688694731        0.0   185.4045   1.505054   1.594959   8.727968   9.249336     .17244
                         440.    .047112    .026039    .178267    .213047    1.37463    .017692    .007004   1492.899   29.85797
                          0.0        0.0        0.0        1.0        0.0
   1500     .0015  749.128962 -1143.0197 393.890716 749.128962 -1143.0197 393.890716 381941.775 -22438.547 -359503.23        0.0
                          0.0        0.0  762.34817 -1167.2018 404.853611 381939.485 -22434.368 -359505.12 1929.54995 -1572.0554
                   -357.49456 1892.14864 -1536.9104 -355.23825 404380.322 337064.682   -741445. .326362938 .099679281 -.42604222
                   -.58410089 -.15263335 .736734241        0.0   185.4045   1.505054   1.594959   8.727968   9.249336     .17244
                         440.    .047112    .026039    .178267    .213047    1.37463    .017692    .007004   1492.899   29.85797
                          0.0        0.0        0.0        1.0        0.0
   2000      .002  878.715978  -1096.863 218.147061 878.715978  -1096.863 218.147061 346796.601 44803.1555 -391599.76        0.0
                          0.0        0.0  894.94653 -1120.5436 225.597057 346793.795 44807.2448 -391601.04 2015.49012 -1346.1406
                   -669.34947 1975.57902 -1315.0101 -660.56892 301993.445 436402.912 -738396.36 .274861903 .166407878 -.44126978
                   -.49658421 -.27004861 .766632906        0.0   185.4045   1.505054   1.594959   8.727968   9.249336     .17244
                         440.    .047112    .026039    .178267    .213047    1.37463    .017692    .007004   1492.899   29.85797
                          0.0        0.0        0.0        1.0        0.0
   2500     .0025  986.665939 -1023.6979 37.0319836 986.665939 -1023.6979 37.0319836 303112.148 110941.653  -414053.8        0.0
                          0.0        0.0 1005.50831 -1046.2939 40.7855843 303108.891 110945.554 -414054.45 2051.80221 -1087.0795
                   -964.72273 2010.36386 -1060.7299 -949.63395 192170.496 524995.454 -717165.95 .216594637 .229038071 -.44563271
                   -.39683997 -.38081449  .77765449        0.0   185.4045   1.505054   1.594959   8.727968   9.249336     .17244
                         440.    .047112    .026039    .178267    .213047    1.37463    .017692    .007004   1492.899   29.85797
                          0.0        0.0        0.0        1.0        0.0
   3000      .003  1070.32089 -925.32594 -144.99495 1070.32089 -925.32594 -144.99495 251964.067 174348.399 -426312.47        0.0
                          0.0        0.0 1091.31104 -946.28092 -145.03012 251960.441 174352.016 -426312.46 2037.59196  -801.2508
                   -1236.3412 1995.64683 -780.33099 -1215.3158 77615.6676 600660.866 -678276.53 .152993302 .286028983 -.43902228
                   -.28732412 -.48220345 .769527657        0.0   185.4045   1.505054   1.594959   8.727968   9.249336     .17244
                         440.    .047112    .026039    .178267    .213047    1.37463    .017692    .007004   1492.899   29.85797
                          0.0        0.0        0.0        1.0        0.0
   3500     .0035    1127.621 -804.16938 -323.45162   1127.621 -804.16938 -323.45162 194611.796 233462.108  -428073.9        0.0
                          0.0        0.0 1150.24212 -822.96738 -327.27473 194607.888 233465.353 -428073.24  1973.2095 -495.69265
                   -1477.5169 1931.79038 -480.71776 -1451.0726 -38850.312 661536.013  -622685.7 .085624819 .335976883  -.4216017
                   -.17073352 -.57171892 .742452499        0.0   185.4045   1.505054   1.594959   8.727968   9.249336     .17244
                         440.    .047112    .026039    .178267    .213047    1.37463    .017692    .007004   1492.899   29.85797
                          0.0        0.0        0.0        1.0        0.0
   4000      .004  1157.15526 -663.21145 -493.94381 1157.15526 -663.21145 -493.94381 132467.537 286827.206 -419294.74        0.0
                          0.0        0.0  1180.8505 -679.38971 -501.46079 132463.443 286829.997 -419293.44 1860.24022 -177.92892
                   -1682.3113 1820.36672 -169.26765 -1651.0991 -154359.67 706121.948 -551762.28 .016148622 .377651592 -.39380021
                     -.049939 -.64715671  .69709566        0.0   185.4045   1.505054   1.594959   8.727968   9.249336     .17244
                         440.    .047112    .026039    .178267    .213047    1.37463    .017692    .007004   1492.899   29.85797
                          0.0        0.0        0.0        1.0        0.0
   4500     .0045  1158.19661 -505.92312 -652.27349 1158.19661 -505.92312 -652.27349 67061.4855 333129.666 -400191.15        0.0
                          0.0        0.0 1182.38285 -519.08341 -663.29944 67057.3081 333131.936 -400189.24 1701.46627 144.216024
                   -1845.6823 1664.11973 146.350377 -1810.4701 -266068.18 733320.818 -467252.64 -.05372619 .410027754 -.35630157
                   .072085434 -.70665943 .634574052        0.0   185.4045   1.505054   1.594959   8.727968   9.249336     .17244
                         440.    .047112    .026039    .178267    .213047    1.37463    .017692    .007004   1492.899   29.85797
                          0.0        0.0        0.0        1.0        0.0
   5000      .005  1130.71932 -336.17728 -794.54204 1130.71932 -336.17728 -794.54204 4.15959362 371229.368 -371233.53        0.0
                          0.0        0.0 1154.80013 -345.99514   -808.805 -.45661E-7  371231.06 -371231.06 1500.79527 462.809858
                   -1963.6051  1466.8966 458.364756 -1925.2614 -371225.21 742462.895 -371237.69  -.1222778 .432307534 -.31002973
                   .192334727 -.74876185 .556427066        0.0   185.4045   1.505054   1.594959   8.727968   9.249336     .17244
                         440.    .047112    .026039    .178267    .213047    1.37463    .017692    .007004   1492.899   29.85797
                          0.0        0.0        0.0        1.0        0.0
   5500     .0055  1075.39986 -158.15358 -917.24628 1075.39986 -158.15358 -917.24628  -67053.27 400188.171  -333134.9        0.0
                          0.0        0.0 1098.78273 -164.38747 -934.39526 -67057.308 400189.244 -333131.94  1263.1702 770.007789
                    -2033.178 1233.55343   759.0927 -1992.6461 -467241.44 733323.072 -266081.63 -.18781831 .443942355 -.25612405
                   .307848146 -.77242726 .464579139        0.0   185.4045   1.505054   1.594959   8.727968   9.249336     .17244
                         440.    .047112    .026039    .178267    .213047    1.37463    .017692    .007004   1492.899   29.85797
                          0.0        0.0        0.0        1.0        0.0
   6000      .006  993.600618 23.7643131 -1017.3649 993.600618 23.7643131 -1017.3649 -132459.63 419293.013 -286833.39        0.0
                          0.0        0.0 1015.70969 21.2679479 -1036.9776 -132463.44  419293.44   -286830. 994.441746 1058.24559
                   -2052.6873 969.836305 1041.12924 -2010.9655 -551752.64 706126.401 -154373.76 -.24873433 .444645957 -.19591163
                   .415781308 -.77707292 .361291659        0.0   185.4045   1.505054   1.594959   8.727968   9.249336     .17244
                         440.    .047112    .026039    .178267    .213047    1.37463    .017692    .007004   1492.899   29.85797
                          0.0        0.0        0.0        1.0        0.0
   6500     .0065   887.33553 205.097108 -1092.4326  887.33553 205.097108 -1092.4326 -194604.39  428073.47 -233469.08        0.0
                          0.0        0.0 907.626575 206.399637 -1114.0262 -194607.89  428073.24 -233465.35 701.226939 1320.42585
                   -2021.6528 682.238422 1297.52975 -1979.7682 -622677.86 661542.554 -38864.698 -.30352527 .434400688 -.13087542
                   .513476519 -.76258449 .249107862        0.0   185.4045   1.505054   1.594959   8.727968   9.249336     .17244
                         440.    .047112    .026039    .178267    .213047    1.37463    .017692    .007004   1492.899   29.85797
                          0.0        0.0        0.0        1.0        0.0
   7000      .007  759.221411 381.379657 -1140.6011 759.221411 381.379657 -1140.6011 -251957.34 426313.337   -174356.        0.0
                          0.0        0.0 777.194631 386.449099 -1163.6437 -251960.44 426312.457 -174352.02 390.745532 1550.09283
                   -1940.8384 377.841754 1521.98073 -1899.8225 -678270.68 600669.334 77601.3425  -.3508428 .413459231 -.06261643
                   .598528296 -.72931868 .130790266        0.0   185.4045   1.505054   1.594959   8.727968   9.249336     .17244
                         440.    .047112    .026039    .178267    .213047    1.37463    .017692    .007004   1492.899   29.85797
                          0.0        0.0        0.0        1.0        0.0
   7500     .0075  612.412676 548.271413 -1160.6841 612.412676 548.271413 -1160.6841 -303106.27 414055.954 -110949.69        0.0
                          0.0        0.0 627.625631 556.982887 -1184.6085 -303108.89 414054.446 -110945.55 70.6427438 1741.59141
                   -1812.2341 64.1412633  1708.9555 -1773.0968 -717162.22 525005.642 192156.579 -.38952138 .382337017 .007184367
                   .668842354 -.67809468 .009252209        0.0   185.4045   1.505054   1.594959   8.727968   9.249336     .17244
                         440.    .047112    .026039    .178267    .213047    1.37463    .017692    .007004   1492.899   29.85797
                          0.0        0.0        0.0        1.0        0.0
   8000      .008  450.524179 701.662979 -1152.1872 450.524179 701.662979 -1152.1872 -346791.71  391603.14 -44811.428        0.0
                          0.0        0.0 462.602354 713.801925 -1176.4043  -346793.8  391601.04 -44807.245 -251.19957  1890.2062
                   -1639.0066  -251.1388 1853.85014 -1602.7113 -738394.85 436414.568 301980.284 -.41860839 .341800265 .076808129
                   .722687196  -.6101737 -.11251367        0.0   185.4045   1.505054   1.594959   8.727968   9.249336     .17244
                         440.    .047112    .026039    .178267    .213047    1.37463    .017692    .007004   1492.899   29.85797
                          0.0        0.0        0.0        1.0        0.0
   8500     .0085  277.542495 837.777157 -1115.3197 277.542495 837.777157 -1115.3197   -381938. 359507.757 22430.2379        0.0
                          0.0        0.0 286.188403 853.044733 -1139.2331 -381939.48 359505.117 22434.3679 -566.85633 1992.27787
                   -1425.4215 -560.23466 1953.09681 -1392.8621 -741445.75  337077.52 404368.233 -.43738816   .2928474 .144540765
                   .758737114 -.52722811   -.231509        0.0   185.4045   1.505054   1.594959   8.727968   9.249336     .17244
                         440.    .047112    .026039    .178267    .213047    1.37463    .017692    .007004   1492.899   29.85797
                          0.0        0.0        0.0        1.0        0.0
   9000      .009  97.7266897 953.262541 -1050.9892 97.7266897 953.262541 -1050.9892  -407679.7   318560.1 89119.5968        0.0
                          0.0        0.0 102.727371 971.282824 -1074.0102 -407680.56 318556.985  89123.572 -868.55545 2045.29302
                   -1176.7376 -855.53585 2004.25177 -1148.7159  -726239.8 229440.504 496799.294 -.44539796 .236683646 .208714315
                    .77610444 -.43130054 -.34480395        0.0   185.4045   1.505054   1.594959   8.727968   9.249336     .17244
                         440.    .047112    .026039    .178267    .213047    1.37463    .017692    .007004   1492.899   29.85797
                          0.0        0.0        0.0        1.0        0.0
   9500     .0095   -84.49544 1045.27541 -960.77997  -84.49544 1045.27541 -960.77997 -423382.97 269768.437 153614.535        0.0
                          0.0        0.0 -83.263129 1065.60469 -982.34156 -423383.18 269764.922 153618.258 -1148.8678 2047.94626
                   -899.07844 -1129.7708 2006.05537 -876.28453 -693151.41 116153.901 576997.507 -.44244047 .174691904  .26774857
                    .77436147 -.32475284 -.44960859        0.0   185.4045   1.505054   1.594959   8.727968   9.249336     .17244
                         440.    .047112    .026039    .178267    .213047    1.37463    .017692    .007004   1492.899   29.85797
                          0.0        0.0        0.0        1.0        0.0
  10000       .01    -264.637 1111.55013 -846.91312   -264.637 1111.55013 -846.91312 -428661.15 214334.178 214326.974        0.0
                          0.0        0.0 -267.20338 1133.68783 -866.48445 -428660.71 214330.353 214330.352 -1400.8912 2000.17229
                   -599.28108 -1376.1871 1958.46325 -582.27612 -642995.33 7.20393518 642988.127 -.42858868 .108398689  .32018999
                   .753551139 -.21020869 -.54334239        0.0   185.4045   1.505054   1.594959   8.727968   9.249336     .17244
                         440.    .047112    .026039    .178267    .213047    1.37463    .017692    .007004   1492.899   29.85797
                          0.0        0.0        0.0        1.0        0.0
  10500     .0105  -438.26244 1150.45486 -712.19242 -438.26244 1150.45486 -712.19242 -423384.27 153622.301 269761.972        0.0
                          0.0        0.0 -444.56419  1173.8558 -729.29162 -423383.18 153618.258 269764.922   -1618.42 1903.14742
                   -284.72743 -1588.7173 1862.64727 -273.92997 -577006.57 -116139.67 693146.245 -.40418345 .039436259 .364747191
                   .714185891 -.09048852 -.62369726        0.0   185.4045   1.505054   1.594959   8.727968   9.249336     .17244
                         440.    .047112    .026039    .178267    .213047    1.37463    .017692    .007004   1492.899   29.85797
                          0.0        0.0        0.0        1.0        0.0
  11000      .011  -601.09621 1161.03147 -559.93526 -601.09621 1161.03147 -559.93526 -407682.27 89127.7335 318554.534        0.0
                          0.0        0.0 -610.97823  1185.1195 -574.14127 -407680.56  89123.572 318556.985 -1796.0977 1759.26077
                   36.8369543 -1762.1277 1720.96672 41.1609493   -496810.  -229426.8 726236.802 -.36982604 -.03049714 .400323185
                   .657235023  .03145973 -.68869475        0.0   185.4045   1.505054   1.594959   8.727968   9.249336     .17244
                         440.    .047112    .026039    .178267    .213047    1.37463    .017692    .007004   1492.899   29.85797
                          0.0        0.0        0.0        1.0        0.0
  11500     .0115  -749.12909 1143.01967 -393.89058 -749.12909 1143.01967 -393.89058 -381941.77 22438.5448 359503.227        0.0
                          0.0        0.0 -762.34812 1167.20168 -404.85356 -381939.48 22434.3679 359505.117 -1929.5498 1572.05524
                   357.494561 -1892.1488 1536.91025 355.238504 -404380.32 -337064.68 741444.999 -.32636232 -.09967959  .42604191
                   .584100861 .152633338  -.7367342        0.0   185.4045   1.505054   1.594959   8.727968   9.249336     .17244
                         440.    .047112    .026039    .178267    .213047    1.37463    .017692    .007004   1492.899   29.85797
                          0.0        0.0        0.0        1.0        0.0
  12000      .012  -878.71601 1096.86299 -218.14698 -878.71601 1096.86299 -218.14698  -346796.6 -44803.155 391599.757        0.0
                          0.0        0.0 -894.94646 1120.54349 -225.59703  -346793.8 -44807.245  391601.04   -2015.49 1346.14052
                   669.349435  -1975.579 1315.00997 660.569025 -301993.45 -436402.91 738396.359 -.27486243 -.16640761 .441270045
                   .496584141 .270048667 -.76663281        0.0   185.4045   1.505054   1.594959   8.727968   9.249336     .17244
                         440.    .047112    .026039    .178267    .213047    1.37463    .017692    .007004   1492.899   29.85797
                          0.0        0.0        0.0        1.0        0.0
  12500     .0125  -986.66589 1023.69783 -37.031941 -986.66589 1023.69783 -37.031941 -303112.15 -110941.65 414053.801        0.0
                          0.0        0.0 -1005.5082 1046.29378 -40.785582 -303108.89 -110945.55 414054.446  -2051.802 1087.07936
                   964.722613 -2010.3637 1060.72977 949.633947  -192170.5 -524995.45  717165.95 -.21659449 -.22903814 .445632636
                   .396839916 .380814531 -.77765441        0.0   185.4045   1.505054   1.594959   8.727968   9.249336     .17244
                         440.    .047112    .026039    .178267    .213047    1.37463    .017692    .007004   1492.899   29.85797
                          0.0        0.0        0.0        1.0        0.0
  13000      .013  -1070.3208 925.325868  144.99497 -1070.3208 925.325868  144.99497 -251964.07  -174348.4 426312.467        0.0
                          0.0        0.0  -1091.311 946.280834 145.030148 -251960.44 -174352.02 426312.457 -2037.5918 801.250686
                   1236.34113 -1995.6467 780.330898 1215.31581  -77615.67 -600660.87 678276.536 -.15299329 -.28602899 .439022281
                   .287324264 .482203448 -.76952757        0.0   185.4045   1.505054   1.594959   8.727968   9.249336     .17244
                         440.    .047112    .026039    .178267    .213047    1.37463    .017692    .007004   1492.899   29.85797
                          0.0        0.0        0.0        1.0        0.0
  13500     .0135  -1127.6209  804.16931 323.451638 -1127.6209  804.16931 323.451638  -194611.8 -233462.11 428073.905        0.0
                          0.0        0.0 -1150.2424 822.967507 327.274932 -194607.89 -233465.35  428073.24 -1973.2099 495.692576
                   1477.51737 -1931.7903 480.717672 1451.07259 38850.3108 -661536.01 622685.702  -.0856249 -.33597684 .421601744
                   .170733508 .571718877 -.74245239        0.0   185.4045   1.505054   1.594959   8.727968   9.249336     .17244
                         440.    .047112    .026039    .178267    .213047    1.37463    .017692    .007004   1492.899   29.85797
                          0.0        0.0        0.0        1.0        0.0
  14000      .014  -1157.1552 663.211396 493.943822 -1157.1552 663.211396 493.943822 -132467.54 -286827.21 419294.743        0.0
                          0.0        0.0 -1180.8504 679.389617 501.460773 -132463.44   -286830.  419293.44   -1860.24 177.928844
                   1682.31116 -1820.3666 169.267575 1651.09904 154359.669 -706121.95 551762.279 -.01614813 -.37765184  .39379997
                   .049938856 .647156731 -.69709559        0.0   185.4045   1.505054   1.594959   8.727968   9.249336     .17244
                         440.    .047112    .026039    .178267    .213047    1.37463    .017692    .007004   1492.899   29.85797
                          0.0        0.0        0.0        1.0        0.0
  14500     .0145  -1158.1966 505.923096 652.273522 -1158.1966 505.923096 652.273522 -67061.486 -333129.67 400191.152        0.0
                          0.0        0.0 -1182.3823   519.0831 663.299172 -67057.308 -333131.94 400189.244 -1701.4654 -144.21607
                   1845.68144 -1664.1197 -146.35043 1810.47014  266068.18 -733320.82 467252.638  .05372627  -.4100278 .356301526
                   -.07208554 .706659422 -.63457394        0.0   185.4045   1.505054   1.594959   8.727968   9.249336     .17244
                         440.    .047112    .026039    .178267    .213047    1.37463    .017692    .007004   1492.899   29.85797
                          0.0        0.0        0.0        1.0        0.0
  % % % % % %   Suspended simulation;  plot data space exhausted;  SPY SPACE is required.   LIMBUF =  840000.
  % % % % % %   Suspended simulation;  plot data space exhausted;  SPY SPACE is required.   LIMBUF =  840000.
  +++  Time-sharing disabled.   Send  user-keyed interrupt to silence alarm.
   Current values.  INDBUF  INDBEG  LIMBUF  MFLUSH  NUMDCD  KCARD1  KCARD2
                    839994      50  840000    1000     230       1     231
Plot timespan now in memory (in sec) = 0.00000000E+00   1.49990000E-02
   ++++  Begin plot-data copy from memory to disk.   MFLUSH, INDBUF, N4, Tbeg,  Tend = 1001  839994       1  -1.00000E+00
1.00000E+19
  15000      .015  -1130.7192 336.177213 794.542018 -1130.7192 336.177213 794.542018 -4.1592729 -371229.37 371233.527        0.0
                          0.0        0.0 -1154.7999 345.995026 808.804918 -.61533E-6 -371231.06  371231.06  -1500.795 -462.80989
                   1963.60486 -1466.8964 -458.36481 1925.26125 371225.209  -742462.9 371237.686 .122277793 -.43230753 .310029737
                   -.19233475 .748761801 -.55642699        0.0   185.4045   1.505054   1.594959   8.727968   9.249336     .17244
                         440.    .047112    .026039    .178267    .213047    1.37463    .017692    .007004   1492.899   29.85797
                          0.0        0.0        0.0        1.0        0.0
  15500     .0155  -1075.3997 158.153502 917.246205 -1075.3997 158.153502 917.246205 67053.2704 -400188.17 333134.901        0.0
                          0.0        0.0 -1098.7826 164.387374 934.395185 67057.3081 -400189.24 333131.936 -1263.1699 -770.00781
                   2033.17774 -1233.5532  -759.0927 1992.64591 467241.441 -733323.07  266081.63 .187818375 -.44394239 .256124015
                   -.30784821 .772427198 -.46457904        0.0   185.4045   1.505054   1.594959   8.727968   9.249336     .17244
                         440.    .047112    .026039    .178267    .213047    1.37463    .017692    .007004   1492.899   29.85797
                          0.0        0.0        0.0        1.0        0.0
  16000      .016  -993.60055 -23.764351  1017.3649 -993.60055 -23.764351  1017.3649 132459.625 -419293.01 286833.388        0.0
                          0.0        0.0 -1015.7096 -21.267997  1036.9776 132463.443 -419293.44 286829.997  -994.4416 -1058.2456
                   2052.68719  -969.8362 -1041.1293 2010.96545 551752.638  -706126.4 154373.763 .248734173 -.44464588 .195911705
                   -.41578132 .777072857 -.36129153        0.0   185.4045   1.505054   1.594959   8.727968   9.249336     .17244
                         440.    .047112    .026039    .178267    .213047    1.37463    .017692    .007004   1492.899   29.85797
                          0.0        0.0        0.0        1.0        0.0
  16500     .0165   -887.3355 -205.09711 1092.43261  -887.3355 -205.09711 1092.43261 194604.385 -428073.47 233469.085        0.0
                          0.0        0.0 -907.62648 -206.39968 1114.02615 194607.888 -428073.24 233465.353  -701.2268 -1320.4258
                   2021.65263 -682.23839 -1297.5297 1979.76811 622677.855 -661542.55 38864.6995 .303525426 -.43440077 .130875342
                   -.51347651 .762584426 -.24910775        0.0   185.4045   1.505054   1.594959   8.727968   9.249336     .17244
                         440.    .047112    .026039    .178267    .213047    1.37463    .017692    .007004   1492.899   29.85797
                          0.0        0.0        0.0        1.0        0.0
  17000      .017  -759.22133 -381.37968 1140.60101 -759.22133 -381.37968 1140.60101 251957.339 -426313.34 174355.998        0.0
                          0.0        0.0 -777.19454 -386.44913 1163.64367 251960.441 -426312.46 174352.016 -390.74541 -1550.0928
                   1940.83821 -377.84165 -1521.9807 1899.82234 678270.676 -600669.33 -77601.341 .350842841 -.41345925  .06261641
                   -.59852831 .729318624  -.1307902        0.0   185.4045   1.505054   1.594959   8.727968   9.249336     .17244
                         440.    .047112    .026039    .178267    .213047    1.37463    .017692    .007004   1492.899   29.85797
                          0.0        0.0        0.0        1.0        0.0
  17500     .0175  -612.41257 -548.27144 1160.68401 -612.41257 -548.27144 1160.68401 303106.266 -414055.95 110949.688        0.0
                          0.0        0.0 -627.62558 -556.98288 1184.60846 303108.891 -414054.45 110945.554 -70.642697 -1741.5913
                   1812.23404 -64.141132 -1708.9555 1773.09658 717162.221 -525005.64 -192156.58 .389521361 -.38233701 -.00718436
                   -.66884232 .678094599 -.00925217        0.0   185.4045   1.505054   1.594959   8.727968   9.249336     .17244
                         440.    .047112    .026039    .178267    .213047    1.37463    .017692    .007004   1492.899   29.85797
                          0.0        0.0        0.0        1.0        0.0
  18000      .018  -450.52445 -701.66279 1152.18725 -450.52445 -701.66279 1152.18725 346791.712 -391603.14  44811.428        0.0
                          0.0        0.0 -462.60228 -713.80192  1176.4042 346793.795 -391601.04 44807.2448 251.199646 -1890.2061
                   1639.00648 251.138342   -1853.85  1602.7117 738394.853 -436414.57 -301980.28  .41860861 -.34180037 -.07680824
                   -.72268717 .610173573 .112513542        0.0   185.4045   1.505054   1.594959   8.727968   9.249336     .17244
                         440.    .047112    .026039    .178267    .213047    1.37463    .017692    .007004   1492.899   29.85797
                          0.0        0.0        0.0        1.0        0.0
  18500     .0185  -277.54246 -837.77713 1115.31959 -277.54246 -837.77713 1115.31959 381937.995 -359507.76 -22430.238        0.0
                          0.0        0.0  -286.1882 -853.04479 1139.23299 381939.485 -359505.12 -22434.368 566.856593 -1992.2778
                   1425.42118 560.234679 -1953.0967 1392.86204 741445.753 -337077.52 -404368.23 .437388144 -.29284739 -.14454075
                   -.75873711 .527228036 .231509021        0.0   185.4045   1.505054   1.594959   8.727968   9.249336     .17244
                         440.    .047112    .026039    .178267    .213047    1.37463    .017692    .007004   1492.899   29.85797
                          0.0        0.0        0.0        1.0        0.0
  19000      .019  -97.726668  -953.2625 1050.98916 -97.726668  -953.2625 1050.98916 407679.697  -318560.1 -89119.597        0.0
                          0.0        0.0 -102.72729 -971.28281  1074.0101 407680.557 -318556.98 -89123.572 868.555523 -2045.2929
                   1176.73739 855.535828 -2004.2517 1148.71583 726239.797  -229440.5 -496799.29 .445397912 -.23668362 -.20871429
                   -.77610438 .431300476 .344803975        0.0   185.4045   1.505054   1.594959   8.727968   9.249336     .17244
                         440.    .047112    .026039    .178267    .213047    1.37463    .017692    .007004   1492.899   29.85797
                          0.0        0.0        0.0        1.0        0.0
  19500     .0195   84.495532 -1045.2754 960.779861  84.495532 -1045.2754 960.779861 423382.972 -269768.44 -153614.54        0.0
                          0.0        0.0 83.2632266 -1065.6047 982.341462  423383.18 -269764.92 -153618.26 1148.86792 -2047.9462
                   899.078235 1129.77093 -2006.0553 876.284329 693151.409  -116153.9 -576997.51 .442440471  -.1746919 -.26774857
                   -.77436141 .324752766 .449608596        0.0   185.4045   1.505054   1.594959   8.727968   9.249336     .17244
                         440.    .047112    .026039    .178267    .213047    1.37463    .017692    .007004   1492.899   29.85797
                          0.0        0.0        0.0        1.0        0.0
  20000       .02  264.637067 -1111.5501 846.913028 264.637067 -1111.5501 846.913028 428661.152 -214334.18 -214326.97        0.0
                          0.0        0.0 267.203398 -1133.6878 866.484373 428660.705 -214330.35 -214330.35 1400.89117 -2000.1721
                   599.280975 1376.18716 -1958.4631 582.275961  642995.33 -7.2039341 -642988.13 .428588585 -.10839864 -.32018994
                   -.75355107 .210208825 .543342355        0.0   185.4045   1.505054   1.594959   8.727968   9.249336     .17244
                         440.    .047112    .026039    .178267    .213047    1.37463    .017692    .007004   1492.899   29.85797
                          0.0        0.0        0.0        1.0        0.0
  20500     .0205  438.262396 -1150.4548 712.192372 438.262396 -1150.4548 712.192372 423384.273  -153622.3 -269761.97        0.0
                          0.0        0.0 444.564215 -1173.8558 729.291539  423383.18 -153618.26 -269764.92 1618.41997 -1903.1473
                   284.727324 1588.71716 -1862.6471 273.929976 577006.574 116139.671 -693146.24 .404183509 -.03943629 -.36474722
                    -.7141858  .09048848 .623697266        0.0   185.4045   1.505054   1.594959   8.727968   9.249336     .17244
                         440.    .047112    .026039    .178267    .213047    1.37463    .017692    .007004   1492.899   29.85797
                          0.0        0.0        0.0        1.0        0.0
  21000      .021  601.096242 -1161.0314 559.935168 601.096242 -1161.0314 559.935168 407682.268 -89127.733 -318554.53        0.0
                          0.0        0.0 610.978362 -1185.1195 574.141128 407680.557 -89123.572 -318556.98 1796.09785 -1759.2606
                   -36.837234 1762.12765 -1720.9666 -41.161074 496810.001 229426.801  -726236.8 .369826065 .030497131  -.4003232
                   -.65723496 -.03145978  .68869474        0.0   185.4045   1.505054   1.594959   8.727968   9.249336     .17244
[...]
                         440.    .047112    .026039    .178267    .213047    1.37463    .017692    .007004   1492.899   29.85797
                          0.0        0.0        0.0        1.0        0.0
 113000      .113  -252512.93 -178792.14 431305.079 -252512.93 -178792.14 431305.079 -252512.93 -178792.14 431305.079        0.0
                          0.0        0.0 -255422.51 -191657.23  447079.74 -251960.44 -174352.02 426312.457 -63765.276 -638736.97
                   702502.249 -73720.791 -610097.22 683818.014 -73720.791 -610097.22 683818.014 77.3744997 -144.83515 67.4606556
                   -285.24515 229.423897 55.8212234        0.0   185.4045   1.505054   1.594959   8.727968   9.249336     .17244
                         440.    .047112    .026039    .178267    .213047    1.37463    .017692    .007004   1492.899   29.85797
                          0.0        0.0        0.0        1.0        0.0
 113500     .1135  -193236.64 -230994.06 424230.707 -193236.64 -230994.06 424230.707 -193236.64 -230994.06 424230.707        0.0
                          0.0        0.0 -192517.77 -248501.37 441019.146 -194607.89 -233465.35  428073.24 55983.6036 -689520.52
                   633536.918 37757.4199 -655224.77 617467.351   37757.42 -655224.77 617467.351 56.9176347 -3.3837867 -53.533846
                   -307.73871 206.372835  101.36587        0.0   185.4045   1.505054   1.594959   8.727968   9.249336     .17244
                         440.    .047112    .026039    .178267    .213047    1.37463    .017692    .007004   1492.899   29.85797
                          0.0        0.0        0.0        1.0        0.0
 114000      .114  -133911.91  -287000.7 420912.612 -133911.91  -287000.7 420912.612 -133911.91  -287000.7 420912.612        0.0
                          0.0        0.0  -140178.4 -271476.97 411655.374 -132463.44   -286830.  419293.44 131298.573 -683132.35
                   551833.774 153088.788 -707913.31 554824.524 153088.788 -707913.31 554824.524 69.4069475 -38.651875 -30.755071
                   -324.07539  178.56375 145.511611        0.0   185.4045   1.505054   1.594959   8.727968   9.249336     .17244
                         440.    .047112    .026039    .178267    .213047    1.37463    .017692    .007004   1492.899   29.85797
                          0.0        0.0        0.0        1.0        0.0
 114500     .1145  -71487.302 -322253.36 393740.657 -71487.302 -322253.36 393740.657 -71487.302 -322253.36 393740.657        0.0
                          0.0        0.0 -74983.289 -324284.81 399268.101 -67057.308 -333131.94 400189.244 249301.522 -723552.91
                    474251.39 250766.053 -715994.01 465227.959 250766.053 -715994.01 465227.959  97.610987 -142.29876 44.6877726
                   -333.74712 146.027729 187.719416        0.0   185.4045   1.505054   1.594959   8.727968   9.249336     .17244
                         440.    .047112    .026039    .178267    .213047    1.37463    .017692    .007004   1492.899   29.85797
                          0.0        0.0        0.0        1.0        0.0
 115000      .115  -554.26888 -375592.06 376146.331 -554.26888 -375592.06 376146.331 -554.26857 -375592.06 376146.332        0.0
                          0.0        0.0 -5223.7506 -372481.04 377704.788 .127058E-4 -371231.06  371231.06 367257.287 -750185.83
                   382928.538 375037.794 -751738.39   376700.6 375037.795 -751738.39   376700.6 152.062251 -287.34649 135.284242
                   -336.58545 109.429293 227.156199        0.0   185.4045   1.505054   1.594959   8.727968   9.249336     .17244
                         440.    .047112    .026039    .178267    .213047    1.37463    .017692    .007004   1492.899   29.85797
                          0.0        0.0        0.0        1.0        0.0
 115500     .1155  67954.6235 -407914.43 339959.806 67954.6235 -407914.43 339959.806 67954.6238 -407914.43 339959.806        0.0
                          0.0        0.0  70592.133 -433410.72 362818.585 67057.3081 -400189.24 333131.936 504002.851  -796229.3
                   292226.452 475869.053 -747874.24 272005.182 475869.053 -747874.24 272005.182 145.690274 -212.71388 67.0236098
                   -331.98282 68.0586037 263.924215        0.0   185.4045   1.505054   1.594959   8.727968   9.249336     .17244
                         440.    .047112    .026039    .178267    .213047    1.37463    .017692    .007004   1492.899   29.85797
                          0.0        0.0        0.0        1.0        0.0
 116000      .116  129969.633 -416923.65 286954.015 129969.633 -416923.65 286954.015 129969.634 -416923.65 286954.015        0.0
                          0.0        0.0    133967. -435051.98 301084.983 132463.443 -419293.44 286829.997 569018.983 -736136.97
                   167117.983 546893.281 -703877.66 156984.381 546893.282 -703877.66 156984.381 130.571724 -106.35435 -24.217373
                   -320.36731 24.0786182 296.288703        0.0   185.4045   1.505054   1.594959   8.727968   9.249336     .17244
                         440.    .047112    .026039    .178267    .213047    1.37463    .017692    .007004   1492.899   29.85797
                          0.0        0.0        0.0        1.0        0.0
 116500     .1165  193469.568 -421738.84  228269.27 193469.568 -421738.84  228269.27 193469.569 -421738.84 228269.269        0.0
                          0.0        0.0 204087.112 -453672.17  249585.06 194607.888 -428073.24 233465.353 657759.284 -703257.23
                    45497.948 615208.407 -650008.11 34799.7011 615208.406 -650008.11 34799.7006 70.2867744 103.896323  -174.1831
                    -301.7889 -21.901032 323.689936        0.0   185.4045   1.505054   1.594959   8.727968   9.249336     .17244
                         440.    .047112    .026039    .178267    .213047    1.37463    .017692    .007004   1492.899   29.85797
                          0.0        0.0        0.0        1.0        0.0
 117000      .117  252749.341 -422495.29 169745.944 252749.341 -422495.29 169745.944 252749.341 -422495.28 169745.944        0.0
                          0.0        0.0 257649.175 -423794.44 166145.263 251960.441 -426312.46 174352.016 681443.612  -589939.7
                   -91503.912 675244.626 -592241.23 -83003.397 675244.626 -592241.23 -83003.397 48.3002146  106.95913 -155.25934
                   -277.21075  -66.83628 344.047004        0.0   185.4045   1.505054   1.594959   8.727968   9.249336     .17244
                         440.    .047112    .026039    .178267    .213047    1.37463    .017692    .007004   1492.899   29.85797
                          0.0        0.0        0.0        1.0        0.0
 117500     .1175  299449.589 -402555.86 103106.276 299449.589 -402555.86 103106.276 299449.589 -402555.86 103106.275        0.0
                          0.0        0.0 301606.292 -397439.88 95833.5867 303108.891 -414054.45 110945.554  699046.17 -493273.47
                   -205772.71 702005.453 -505662.14 -196343.31 702005.453 -505662.14 -196343.31 49.9592571 54.3225278 -104.28179
                   -247.14286 -110.54519 357.688031        0.0   185.4045   1.505054   1.594959   8.727968   9.249336     .17244
                         440.    .047112    .026039    .178267    .213047    1.37463    .017692    .007004   1492.899   29.85797
                          0.0        0.0        0.0        1.0        0.0
 118000      .118  347224.199 -400466.52 53242.3208 347224.199 -400466.52 53242.3208   347224.2 -400466.52 53242.3208        0.0
                          0.0        0.0   351220.1 -394569.39 43349.2868 346793.795 -391601.04 44807.2447 745789.487 -437918.67
                   -307870.81  747690.72 -453708.84 -293981.88  747690.72 -453708.84 -293981.88  71.087343 -87.548976 16.4616315
                   -212.30041 -151.71941 364.019809        0.0   185.4045   1.505054   1.594959   8.727968   9.249336     .17244
                         440.    .047112    .026039    .178267    .213047    1.37463    .017692    .007004   1492.899   29.85797
                          0.0        0.0        0.0        1.0        0.0
 118500     .1185  381926.011 -360601.09 -21324.923 381926.011 -360601.09 -21324.923 381926.012 -360601.09 -21324.923        0.0
                          0.0        0.0  391872.83 -383393.32 -8479.5114 381939.485 -359505.12 -22434.368 775266.148 -374913.81
                   -400352.34   742527.1 -339276.17 -403250.93   742527.1 -339276.17 -403250.93 64.8829712 -69.010997 4.12802478
                   -173.24979 -190.87912 364.128907        0.0   185.4045   1.505054   1.594959   8.727968   9.249336     .17244
                         440.    .047112    .026039    .178267    .213047    1.37463    .017692    .007004   1492.899   29.85797
                          0.0        0.0        0.0        1.0        0.0
 119000      .119  408627.489 -325689.85 -82937.635 408627.489 -325689.85 -82937.635 408627.489 -325689.85 -82937.635        0.0
                          0.0        0.0 420764.441  -351485.3 -69279.137 407680.557 -318556.98 -89123.572 772249.744 -282206.17
                   -490043.58 734317.342 -242752.22 -491565.12 734317.342 -242752.22 -491565.12 39.1782466 -2.5342519 -36.643996
                    -130.9934 -226.37564 357.369099        0.0   185.4045   1.505054   1.594959   8.727968   9.249336     .17244
                         440.    .047112    .026039    .178267    .213047    1.37463    .017692    .007004   1492.899   29.85797
                          0.0        0.0        0.0        1.0        0.0
 119500     .1195  429853.811 -276333.47 -153520.34 429853.811 -276333.47 -153520.34 429853.811 -276333.47 -153520.34        0.0
                          0.0        0.0 442734.806 -299501.73 -143233.07  423383.18 -269764.92 -153618.26  742236.54 -156268.66
                   -585967.88 706187.281 -122813.13 -583374.15 706187.281 -122813.13 -583374.15 -32.431151 191.226764 -158.79562
                   -86.396746 -257.84792 344.244671        0.0   185.4045   1.505054   1.594959   8.727968   9.249336     .17244
                         440.    .047112    .026039    .178267    .213047    1.37463    .017692    .007004   1492.899   29.85797
                          0.0        0.0        0.0        1.0        0.0
  % % % % % %   Suspended simulation;  plot data space exhausted;  SPY SPACE is required.   LIMBUF =  840000.
  % % % % % %   Suspended simulation;  plot data space exhausted;  SPY SPACE is required.   LIMBUF =  840000.
  +++  Time-sharing disabled.   Send  user-keyed interrupt to silence alarm.
   Current values.  INDBUF  INDBEG  LIMBUF  MFLUSH  NUMDCD  KCARD1  KCARD2
                    839994      50  840000    1007     230       1     231
Plot timespan now in memory (in sec) = 1.04985997E-01   1.19985000E-01
   ++++  Begin plot-data copy from memory to disk.   MFLUSH, INDBUF, N4, Tbeg,  Tend = 1008  839994       1  -1.00000E+00
1.00000E+19
 120000       .12  428976.034 -206797.34  -222178.7 428976.034 -206797.34  -222178.7 428976.034 -206797.34  -222178.7        0.0
                          0.0        0.0 441290.351 -208449.78 -232840.57 428660.705 -214330.35 -214330.35 649740.127 24390.7987
                   -674130.93 635773.372 15381.3592 -651154.73 635773.371   15381.36 -651154.73 -68.422846 224.594953 -156.17211
                   -41.047627  -282.7593 323.806927        0.0   185.4045   1.505054   1.594959   8.727968   9.249336     .17244
                         440.    .047112    .026039    .178267    .213047    1.37463    .017692    .007004   1492.899   29.85797
                          0.0        0.0        0.0        1.0        0.0

Extrema of output variables follow.   Order and column positioning are the same as for the preceding time-step loop output.
Variable maxima :  448178.901 471661.041  452847.24 448178.901 471661.041  452847.24 448178.901 471661.041  452847.24        0.0
                          0.0        0.0 470409.933 558285.621 478952.743 428660.705 428660.703 428660.703 863934.286 924431.818
                    814093.32 793437.497  795198.98  767780.82 793437.496  795198.98  767780.82 218.768729 655.595168 606.733303
                   236.504831 257.147105 400.972792        0.0   185.4045   1.505054   1.594959   8.727968   9.249336     .17244
                         440.    .047112    .026039    .178267    .213047    1.37463    .017692    .007004   1492.899   29.85797
                          0.0        0.0        0.0        1.0        0.0
Times of maxima :     .060016    .066934    .093842    .060016    .066934    .093842    .060016    .066934    .093842        0.0
                          0.0        0.0    .059635    .067112    .071963        0.0    .006667    .113333    .078042    .064151
                      .071898    .078457     .06393    .071419    .078457     .06393    .071419    .055901    .047387    .067833
                      .104938    .111659    .058232        0.0        0.0        0.0        0.0        0.0        0.0        0.0
                          0.0        0.0        0.0        0.0        0.0        0.0        0.0        0.0        0.0        0.0
                          0.0        0.0        0.0        0.0        0.0
Variable minima :  -438729.64 -495656.22 -461836.36 -438729.64 -495656.22 -461836.36 -470529.18 -495656.22 -461836.36        0.0
                          0.0        0.0 -461757.25 -554607.08 -509495.67 -428660.71  -428660.7  -428660.7 -861352.31 -945595.35
                    -803432.8 -801465.02 -821677.62 -755141.41 -894626.99 -821677.62 -755141.41 -589.55107 -665.19604  -407.0917
                   -360.27671 -329.81251 -205.67948        0.0   185.4045   1.505054   1.594959   8.727968   9.249336     .17244
                         440.    .047112    .026039    .178267    .213047    1.37463    .017692    .007004   1492.899   29.85797
                          0.0        0.0        0.0        1.0        0.0
Times of minima :     .070309    .056181    .063687    .070309    .056181    .063687    .049716    .056181    .063687        0.0
                          0.0        0.0     .07047    .056612    .064088        .01    .016667    .103333    .067114    .075023
                      .061097    .067749    .056027    .061607    .048444    .056027    .061607    .048396    .071181    .060305
                      .054899    .061529    .108396        0.0        0.0        0.0        0.0        0.0        0.0        0.0
                          0.0        0.0        0.0        0.0        0.0        0.0        0.0        0.0        0.0        0.0
                          0.0        0.0        0.0        0.0        0.0

Blank card terminating all plot cards.            |BLANK PLOT

Memory storage figures for the preceding, now-completed data case.  -------------------------------  Present   Program
A value of  "-9999"  indicates that no figure is available.         28-Feb-22  19:17:26              figure     limit  (name)
     Size List 1.   Number of electric network nodes.                                                   37      6000  (LBUS)
     Size List 2.   Number of electric network branches.                                                39     10000  (LBRNCH)
     Size List 3.   Number of data values in R, L, C tables.                                            45    192000  (LDATA)
     Size List 4.   Number of electric network sources.                                                  3       900  (LEXCT)
     Size List 5.   Storage for [Y] and triangularized [Y].   No. times =    3     Factors =    66     189    420000  (LYMAT)
     Size List 6.   Number of entries in switch table.                  No. flops = 18                  21      1200  (LSWTCH)
     Size List 7.   Number of distinct ALPHANUMERIC data names plus program SPY variables.              25     15000  (LSIZE7)
     Size List 8.   History points of distributed lines.                                              2316    120000  (LPAST)
     Size List 9.   Number of nonlinear elements.                                                        0      2250  (LNONL)
     Size List 10.  Points of nonlinear characteristics.                                                 0      3800  (LCHAR)
     Size List 11.  Number of Type-59 S.M. outputs.                                                      0       720  (LSMOUT)
     Size List 12.  Total number of EMTP output variables.                                              55      2000  (LSIZ12)
     Size List 13.  Working space for batch/SPY plotting.                                            -9999     72800  (LSIZ13)
     Size List 14.  S.M./U.M. connections to TACS.                                                   -9999       510  (LBSTAC)
     Size List 15.  Character storage in bytes for MODELS.                                            3297     90000  (LCTACS)
     Size List 16.  Total number of Type-59 S.M. masses.                                                 0       800  (LIMASS)
     Size List 17.  Number of Type-59 Synchronous machines.                                              0        90  (LSYN)
     Size List 18.  Branch and switch power/energy outputs.                                              0       254  (MAXPE)
     Size List 19.  Total floating-point TACS table space.                                              23    120000  (LTACST)
     Size List 20.  Non-copied recursive convolution data.                                               0    100000  (LFSEM)
     Size List 21.  Total modal/phase [T] matrix storage.                                                9      3000  (LFD)
     Size List 22.  Total recursive convolution history.                                                 0     15000  (LHIST)
     Size List 23.  Giant vectors for renumbering, phasors;  also extrema accumulation.                  93    192000  (LSIZ23)
     Size List 24.  Peak phases of compensation for data.                                                0       120  (LCOMP)
     Size List 25.  Total table space for all U.M usage.                                             -9999     45000  (LSPCUM)
     Size List 26.  Square of max number of coupled phases.                                              9    260000  (LSIZ26)
     Size List 27.  Maximum number of MODELS top variables.                                             44       600  (LSIZ27)
     Size List 28.  MODELS.  Total work space is divided into INTEGER and REAL.  1st, REAL:           1780    210000  (LRTACS)
                             Second  and last,  statistics for INTEGER work space.                    6838         0  (LITACS)
     Size List 29.  RAM disk used by "TAPSAV" table saving (limit is "LABCOM" size LTLABL).          -9999       600  (LSIZ29)
     Size List 30.  Taku Noda frequency-dependent circuits.                                              0        19  (LSIZ30)
Timing figures characterizing central processor (CP) solution speed.  ----------------------------   CP sec  Wait sec  Real sec
     Data input time (through blank card ending branches) ....                                       0.031     0.000     0.031
     Node renumbering and phasor solution  ....                                                      0.000     0.000     0.000
     After phasor solution, but before time-step loop  ....                                          0.016     0.000     0.016
     Integration of equations (time-step loop)  ....                                                 1.203     0.000     1.203
     Plotting or STATISTICS termination overlays ....                                                0.000     0.000     0.000
                                                                                                    ---------------------------
                                                                                          Totals      1.250     0.000     1.250

