   ---   236   cards of disk file read into card cache cells  1   onward.
 Comment card is ignored.      |C   LBUS  LBRNCH   LDATA   LEXCT   LYMAT  LSWTCH
 Limit CIDEAL cards =   200    |CARDS        200 { Limit of CIDEAL will be 2 mor
 1st card (Lists  1-10).       |    6000   10000  192000     900  420000    120
 Comment card is ignored.      |C LSMOUT  LSIZ12  LSIZ13  LBSTAC  LCTACS  LIMASS
 2nd card (Lists 11-20).       |     720    2000   72800     510   90000     80
 Comment card is ignored.      |C    LFD   LHIST  LSIZ23   NCOMP  LSPCUM  LSIZ26
 3rd card (Lists 21-30).       |    3000   15000  192000     120   45000  26000
 4th card (Lists 31-32).       |     200     300     { Optional card for Lists
 Comment card is ignored.      |C  LWORK  LMARTI
 Supplemental offsets.         |  840000     742
 <===> Done with  "/"-card sorting by data class.    Remember that the source file appears different from interpreted input data.
Alternative Transients Program (ATP),  GNU Linux or DOS.  All rights reserved by Can/Am user group of Portland, Oregon, USA.
 Date (dd-mth-yy) and time of day (hh.mm.ss) = 28-Feb-22  20:01:03   Name of disk plot file is  p\bdfinalisima\energizacion2259.pl4
Consult the 860-page ATP Rule Book of the Can/Am EMTP User Group in Portland,  Oregon, USA.  Source code date is 12 August 2008.
Total size of LABCOM tables = 10913436 INTEGER words.  31 VARDIM  List Sizes follow:  6002  10K  192K  900  420K  1200  15K
  120K  2250  3800  720  2K  72800  510  90K  800  90  254  120K  100K  3K  15K  192K  120  45K  260K  600  210K  1100  60  200
--------------------------------------------------+--------------------------------------------------------------------------------
Descriptive interpretation of input data cards.   |  Input data card images are shown below, all 80 columns, character by character
                                                  0         1         2         3         4         5         6         7         8
                                                  012345678901234567890123456789012345678901234567890123456789012345678901234567890
--------------------------------------------------+--------------------------------------------------------------------------------
Comment card.   NUMDCD = 1.                       |C data:D:\ATP\BDFINALISIMA\ENERGIZACION2259.ATP
Marker card preceding new EMTP data case.         |BEGIN NEW DATA CASE
Comment card.   NUMDCD = 3.                       |C --------------------------------------------------------
Comment card.   NUMDCD = 4.                       |C Generated by ATPDRAW  febrero, lunes 28, 2022
Comment card.   NUMDCD = 5.                       |C A Bonneville Power Administration program
Comment card.   NUMDCD = 6.                       |C by H. K. Høidalen at SEfAS/NTNU - NORWAY 1994-2016
Comment card.   NUMDCD = 7.                       |C --------------------------------------------------------
Comment card.   NUMDCD = 8.                       |C  dT  >< Tmax >< Xopt >< Copt ><Epsiln>
Misc. data.     1.000E-06   1.200E-01   5.000E+01 |   1.E-6     .12     50.
Misc. data.    500    1  0  1  1  0  0  0  0  0   |     500       1       0       1       1       0       0       0       0
  ///  Warning.  Nonzero XOPT or COPT differs from the power frequency of  6.00000000E+01  Hz.   Did the user really want this?
No TACS data,  but MODELS data begins (next).     |MODELS
      Another ordinary MODELS data card.          |OUTPUT
      Another ordinary MODELS data card.          |  AnVol
      Another ordinary MODELS data card.          |  LONG
      Another ordinary MODELS data card.          |  R0F
      Another ordinary MODELS data card.          |  R1F
      Another ordinary MODELS data card.          |  X0F
      Another ordinary MODELS data card.          |  X1F
      Another ordinary MODELS data card.          |  RDIVX
      Another ordinary MODELS data card.          |  RINSER
      Another ordinary MODELS data card.          |  CLOSE1
      Another ordinary MODELS data card.          |  RPpos
      Another ordinary MODELS data card.          |  RPcero
      Another ordinary MODELS data card.          |  LPpos
      Another ordinary MODELS data card.          |  LPcero
      Another ordinary MODELS data card.          |  CPpos
      Another ordinary MODELS data card.          |  CPcero
      Another ordinary MODELS data card.          |  Xp
      Another ordinary MODELS data card.          |  CR
      Another ordinary MODELS data card.          |  SIMET
      Another ordinary MODELS data card.          |  ENC1
      Another ordinary MODELS data card.          |  ENC2
      Another ordinary MODELS data card.          |  ENC1AS
      Another ordinary MODELS data card.          |  ENC2AS
      Another ordinary MODELS data card.          |MODEL DEFAULT
      Another ordinary MODELS data card.          |DATA AnVol,LONG,R0F,R1F,X0F,X1F,RDIVX,RINSER,CLOSE1,RPpos,RPcero,LPpos,LPcero
      Another ordinary MODELS data card.          |OUTPUT o1,o2,o3, o4, o5, o6, o7, o8, o9, o10, o11, o12, o13
      Another ordinary MODELS data card.          |VAR o1,o2,o3, o4, o5, o6, o7, o8, o9, o10, o11, o12, o13
      Another ordinary MODELS data card.          |INIT
      Another ordinary MODELS data card.          |  o1:=AnVol
      Another ordinary MODELS data card.          |  o2:=LONG
      Another ordinary MODELS data card.          |  o3:=R0F
      Another ordinary MODELS data card.          |  o4:=R1F
      Another ordinary MODELS data card.          |  o5:=X0F
      Another ordinary MODELS data card.          |  O6:=X1F
      Another ordinary MODELS data card.          |  o7:=RDIVX
      Another ordinary MODELS data card.          |  o8:=RINSER
      Another ordinary MODELS data card.          |  o9:=CLOSE1
      Another ordinary MODELS data card.          |  o10:=RPpos
      Another ordinary MODELS data card.          |  o11:=RPcero
      Another ordinary MODELS data card.          |  o12:=LPpos
      Another ordinary MODELS data card.          |  o13:=LPcero
      Another ordinary MODELS data card.          |
      Another ordinary MODELS data card.          |ENDINIT
      Another ordinary MODELS data card.          |EXEC
      Another ordinary MODELS data card.          |ENDEXEC
      Another ordinary MODELS data card.          |ENDMODEL
      Another ordinary MODELS data card.          |MODEL DEFAULT1
      Another ordinary MODELS data card.          |DATA CPpos,CPcero,Xp,CR,SIMET,ENC1,ENC2,ENC1AS,ENC2AS
      Another ordinary MODELS data card.          |OUTPUT o1, o2, o3, o4, o5, o6, o7, o8, o9
      Another ordinary MODELS data card.          |VAR o1, o2, o3, o4, o5, o6, o7, o8, o9
      Another ordinary MODELS data card.          |INIT
      Another ordinary MODELS data card.          |  o1:=CPpos
      Another ordinary MODELS data card.          |  o2:=CPcero
      Another ordinary MODELS data card.          |  o3:=Xp
      Another ordinary MODELS data card.          |  o4:=CR
      Another ordinary MODELS data card.          |  o5:=SIMET
      Another ordinary MODELS data card.          |  o6:=ENC1
      Another ordinary MODELS data card.          |  o7:=ENC2
      Another ordinary MODELS data card.          |  o8:=ENC1AS
      Another ordinary MODELS data card.          |  o9:=ENC2AS
      Another ordinary MODELS data card.          |
      Another ordinary MODELS data card.          |ENDINIT
      Another ordinary MODELS data card.          |EXEC
      Another ordinary MODELS data card.          |ENDEXEC
      Another ordinary MODELS data card.          |ENDMODEL
      Another ordinary MODELS data card.          |USE DEFAULT AS DEFAULT
      Another ordinary MODELS data card.          |DATA
      Another ordinary MODELS data card.          |  AnVol:=      0.0
      Another ordinary MODELS data card.          |  LONG:= 134.9084
      Another ordinary MODELS data card.          |  R0F:= 1.283171
      Another ordinary MODELS data card.          |  R1F:= 1.103074
      Another ordinary MODELS data card.          |  X0F:= 11.55868
      Another ordinary MODELS data card.          |  X1F:= 9.936383
      Another ordinary MODELS data card.          |  RDIVX:= 0.111014
      Another ordinary MODELS data card.          |  RINSER:=     400.
      Another ordinary MODELS data card.          |  CLOSE1:= 0.046189
      Another ordinary MODELS data card.          |  RPpos:= 0.019088
      Another ordinary MODELS data card.          |  RPcero:= 0.261571
      Another ordinary MODELS data card.          |  LPpos:= 0.434247
      Another ordinary MODELS data card.          |  LPcero:= 1.259751
      Another ordinary MODELS data card.          |OUTPUT
      Another ordinary MODELS data card.          |  AnVol:=o1
      Another ordinary MODELS data card.          |  LONG:=o2
      Another ordinary MODELS data card.          |  R0F:=o3
      Another ordinary MODELS data card.          |  R1F:=o4
      Another ordinary MODELS data card.          |  X0F:=o5
      Another ordinary MODELS data card.          |  X1F:=o6
      Another ordinary MODELS data card.          |  RDIVX:=o7
      Another ordinary MODELS data card.          |  RINSER:=o8
      Another ordinary MODELS data card.          |  CLOSE1:=o9
      Another ordinary MODELS data card.          |  RPpos:=o10
      Another ordinary MODELS data card.          |  RPcero:=o11
      Another ordinary MODELS data card.          |  LPpos:=o12
      Another ordinary MODELS data card.          |  LPcero:=o13
      Another ordinary MODELS data card.          |ENDUSE
      Another ordinary MODELS data card.          |USE DEFAULT1 AS DEF
      Another ordinary MODELS data card.          |DATA
      Another ordinary MODELS data card.          |  CPpos:= 0.016886
      Another ordinary MODELS data card.          |  CPcero:= 0.008669
      Another ordinary MODELS data card.          |  Xp:= 2149.611
      Another ordinary MODELS data card.          |  CR:= 42.99222
      Another ordinary MODELS data card.          |  SIMET:=       1.
      Another ordinary MODELS data card.          |  ENC1:=      0.0
      Another ordinary MODELS data card.          |  ENC2:=       1.
      Another ordinary MODELS data card.          |  ENC1AS:=      0.0
      Another ordinary MODELS data card.          |  ENC2AS:=      0.0
      Another ordinary MODELS data card.          |OUTPUT
      Another ordinary MODELS data card.          |  CPpos:=o1
      Another ordinary MODELS data card.          |  CPcero:=o2
      Another ordinary MODELS data card.          |  Xp:=o3
      Another ordinary MODELS data card.          |  CR:=o4
      Another ordinary MODELS data card.          |  SIMET:=o5
      Another ordinary MODELS data card.          |  ENC1:=o6
      Another ordinary MODELS data card.          |  ENC2:=o7
      Another ordinary MODELS data card.          |  ENC1AS:=o8
      Another ordinary MODELS data card.          |  ENC2AS:=o9
      Another ordinary MODELS data card.          |ENDUSE
      Another ordinary MODELS data card.          |RECORD
      Another ordinary MODELS data card.          |  DEFAULT.o1 AS AnVOL
      Another ordinary MODELS data card.          |  DEFAULT.o2 AS LONG
      Another ordinary MODELS data card.          |  DEFAULT.o3 AS R0F
      Another ordinary MODELS data card.          |  DEFAULT.o4 AS R1F
      Another ordinary MODELS data card.          |  DEFAULT.o5 AS X0F
      Another ordinary MODELS data card.          |  DEFAULT.o6 AS X1F
      Another ordinary MODELS data card.          |  DEFAULT.o7 AS RDIVX
      Another ordinary MODELS data card.          |  DEFAULT.o8 AS RINSER
      Another ordinary MODELS data card.          |  DEFAULT.o9 AS CLOSE1
      Another ordinary MODELS data card.          |  DEFAULT.o10 AS RPpos
      Another ordinary MODELS data card.          |  DEFAULT.o11 AS RPcero
      Another ordinary MODELS data card.          |  DEFAULT.o12 AS LPpos
      Another ordinary MODELS data card.          |  DEFAULT.o13 AS LPcero
      Another ordinary MODELS data card.          |  DEF.o1 AS CPpos
      Another ordinary MODELS data card.          |  DEF.o2 AS CPcero
      Another ordinary MODELS data card.          |  DEF.o3 AS Xp
      Another ordinary MODELS data card.          |  DEF.o4 AS CR
      Another ordinary MODELS data card.          |  DEF.o5 AS SIMET
      Another ordinary MODELS data card.          |  DEF.o6 AS ENC1
      Another ordinary MODELS data card.          |  DEF.o7 AS ENC2
      Another ordinary MODELS data card.          |  DEF.o8 AS ENC1AS
      Another ordinary MODELS data card.          |  DEF.o9 AS ENC2AS
Termination of data for Laurent Dube`s MODELS.    |ENDMODELS
Comment card.   NUMDCD = 153.                     |C        1         2         3         4         5         6         7         8
Comment card.   NUMDCD = 154.                     |C 345678901234567890123456789012345678901234567890123456789012345678901234567890
Optional blank card follows last of MODELS data.  |BLANK MODELS
Comment card.   NUMDCD = 156.                     |C < n1 >< n2 ><ref1><ref2>< R  >< L  >< C  >
Comment card.   NUMDCD = 157.                     |C < n1 >< n2 ><ref1><ref2>< R  >< A  >< B  ><Leng><><>0
1st of coupled R-L.   1.28320E+00  3.67924E-02    |51IFUENASB1A              1.283211.558679078
2nd coil. 1.103E+00 3.163E-02 0.000E+00 0.000E+00 |52IFUENBSB1B              1.10319.9363830274
Zca, Zcc= 6.003E-02 1.721E-03 1.163E+00 3.335E-02 |53IFUENCSB1C
Series R-L-C.   1.000E+09  0.000E+00  0.000E+00   |  SB1A                      1.E9                                               0
Series R-L-C.   1.000E+09  0.000E+00  0.000E+00   |  SB1B                      1.E9                                               0
Series R-L-C.   1.000E+09  0.000E+00  0.000E+00   |  SB1C                      1.E9                                               0
Series R-L-C.   1.000E+09  0.000E+00  0.000E+00   |  RSNSHA                    1.E9                                               0
Series R-L-C.   1.000E+09  0.000E+00  0.000E+00   |  RSNSHB                    1.E9                                               0
Series R-L-C.   1.000E+09  0.000E+00  0.000E+00   |  RSNSHC                    1.E9                                               0
Series R-L-C.   2.150E+01  3.421E+00  0.000E+00   |  RSNNHA                  21.4961074.8                                         0
Series R-L-C.   2.150E+01  3.421E+00  0.000E+00   |  RSNNHB                  21.4961074.8                                         0
Series R-L-C.   2.150E+01  3.421E+00  0.000E+00   |  RSNNHC                  21.4961074.8                                         0
Series R-L-C.   1.000E+09  0.000E+00  0.000E+00   |  SE2A                      1.E9                                               0
Series R-L-C.   1.000E+09  0.000E+00  0.000E+00   |  SE2B                      1.E9                                               0
Series R-L-C.   1.000E+09  0.000E+00  0.000E+00   |  SE2C                      1.E9                                               0
Series R-L-C.   2.500E+02  0.000E+00  3.000E-10   |  X0001B                    250.       .0003                                   0
Series R-L-C.   2.500E+02  0.000E+00  3.000E-10   |  X0002B                    250.       .0003                                   0
Series R-L-C.   1.000E-06  0.000E+00  0.000E+00   |  X0001ALN1A               1.E-6                                               0
Series R-L-C.   1.000E-06  0.000E+00  0.000E+00   |  SB1A  X0002A             1.E-6                                               0
Series R-L-C.   1.000E-06  0.000E+00  0.000E+00   |  X0001BLN1B               1.E-6                                               0
Series R-L-C.   1.000E-06  0.000E+00  0.000E+00   |  SB1B  X0002B             1.E-6                                               0
Series R-L-C.   1.000E-06  0.000E+00  0.000E+00   |  X0001CLN1C               1.E-6                                               0
Series R-L-C.   1.000E-06  0.000E+00  0.000E+00   |  SB1C  X0002C             1.E-6                                               0
Series R-L-C.   4.000E+02  0.000E+00  0.000E+00   |  XX0005X0002A              400.                                               0
Series R-L-C.   4.000E+02  0.000E+00  0.000E+00   |  XX0003X0002B              400.                                               0
Series R-L-C.   4.000E+02  0.000E+00  0.000E+00   |  XX0004X0002C              400.                                               0
Series R-L-C.   2.500E+02  0.000E+00  3.000E-10   |  X0001A                    250.       .0003                                   0
Series R-L-C.   1.000E+06  0.000E+00  0.000E+00   |  X0001AX0002A              1.E6                                               0
Series R-L-C.   1.000E+06  0.000E+00  0.000E+00   |  X0001BX0002B              1.E6                                               0
Series R-L-C.   1.000E+06  0.000E+00  0.000E+00   |  X0001CX0002C              1.E6                                               0
Series R-L-C.   2.500E+02  0.000E+00  3.000E-10   |  X0002C                    250.       .0003                                   0
Series R-L-C.   2.500E+02  0.000E+00  3.000E-10   |  X0002A                    250.       .0003                                   0
Series R-L-C.   2.500E+02  0.000E+00  3.000E-10   |  X0001C                    250.       .0003                                   0
Series R-L-C.   1.250E+02  0.000E+00  6.000E-10   |  X0001AX0002A              125.       .0006                                   0
Series R-L-C.   1.250E+02  0.000E+00  6.000E-10   |  X0001BX0002B              125.       .0006                                   0
Series R-L-C.   1.250E+02  0.000E+00  6.000E-10   |  X0001CX0002C              125.       .0006                                   0
 2.616E-01 1.260E+00 8.670E-03 6.801E+02 7.955E-04|-1LN1A  VFF2A             .261571.2598.00867134.91 0 0                         0
 1.909E-02 4.343E-01 1.689E-02 2.861E+02 6.519E-04|-2LN1B  VFF2B             .01909.43425.01689134.91 0 0                         0
3rd or later transposed distributed phase.        |-3LN1C  VFF2C                                                                  0
Blank card ending branches.  IBR, NTOT = 39  31   |BLANK BRANCH
Comment card.   NUMDCD = 198.                     |C < n 1>< n 2>< Tclose ><Top/Tde ><   Ie   ><Vf/CLOP ><  type  >
Switch.  -1.00E+00  1.00E+01  0.00E+00  0.00E+00  |  LN1A  COMPA        -1.       10.                                             0
Switch.  -1.00E+00  1.00E+01  0.00E+00  0.00E+00  |  LN1B  COMPB        -1.       10.                                             0
Switch.  -1.00E+00  1.00E+01  0.00E+00  0.00E+00  |  LN1C  COMPC        -1.       10.                                             0
Switch.  -1.00E+00  1.00E+01  0.00E+00  0.00E+00  |  VFF2A RSNNHA       -1.       10.                                             0
Switch.  -1.00E+00  1.00E+01  0.00E+00  0.00E+00  |  VFF2B RSNNHB       -1.       10.                                             0
Switch.  -1.00E+00  1.00E+01  0.00E+00  0.00E+00  |  VFF2C RSNNHC       -1.       10.                                             0
Switch.   2.00E+00 -1.00E+00  0.00E+00  0.00E+00  |  VFF2A SE2A          2.       -1.                                             0
Switch.   2.00E+00 -1.00E+00  0.00E+00  0.00E+00  |  VFF2B SE2B          2.       -1.                                             0
Switch.   2.00E+00 -1.00E+00  0.00E+00  0.00E+00  |  VFF2C SE2C          2.       -1.                                             0
Switch.   4.62E-02  1.00E+03  0.00E+00  0.00E+00  |  X0001BXX0003 .04618854      1.E3                                             0
Switch.   4.62E-02  1.00E+03  0.00E+00  0.00E+00  |  X0001CXX0004 .04618854      1.E3                                             0
Switch.   5.37E-02  1.00E+03  0.00E+00  0.00E+00  |  XX0005X0002A .05368854      1.E3                                             0
Switch.   5.37E-02  1.00E+03  0.00E+00  0.00E+00  |  XX0003X0002B .05368854      1.E3                                             0
Switch.   5.37E-02  1.00E+03  0.00E+00  0.00E+00  |  XX0004X0002C .05368854      1.E3                                             0
Switch.   4.62E-02  1.00E+03  0.00E+00  0.00E+00  |  X0001AXX0005 .04618854      1.E3                                             0
Permanently-closed switch used for metering.      |  VFUENAIFUENA                                        MEASURING                1
Permanently-closed switch used for metering.      |  VFUENBIFUENB                                        MEASURING                1
Permanently-closed switch used for metering.      |  VFUENCIFUENC                                        MEASURING                1
Permanently-closed switch used for metering.      |  COMPA RSNSHA                                        MEASURING                1
Permanently-closed switch used for metering.      |  COMPB RSNSHB                                        MEASURING                1
Permanently-closed switch used for metering.      |  COMPC RSNSHC                                        MEASURING                1
Blank card ending switches.   KSWTCH = 21.        |BLANK SWITCH
Comment card.   NUMDCD = 221.                     |C < n 1><>< Ampl.  >< Freq.  ><Phase/T0><   A1   ><   T1   >< TSTART >< TSTOP  >
Source.   4.29E+05  5.00E+01  0.00E+00 -1.00E+00  |14VFUENA  428660.705       50.                                     -1.      100.
Source.   4.29E+05  5.00E+01 -1.20E+02 -1.00E+00  |14VFUENB  428660.705       50.     -120.                           -1.      100.
Source.   4.29E+05  5.00E+01 -2.40E+02 -1.00E+00  |14VFUENC  428660.705       50.     -240.                           -1.      100.
Blank card ends electric sources.  KCONST = 3     |BLANK SOURCE
Pi-equivalent branches of distributed circuits are added to the table of List Size 3 between indices  40   and  45.

Sinusoidal steady-state phasor solution, branch by branch.   All flows are away from a bus,  and the real part,  magnitude,  or  "P"
is printed above the imaginary part,  the angle,  or  "Q".   The first solution frequency  =  5.00000000E+01  Hertz.
  Bus K                        Phasor  node  voltage              Phasor  branch  current               Power flow       Power loss
             Bus M         Rectangular            Polar          Rectangular            Polar            P  and  Q        P  and  Q

 IFUENA                    428660.705       428660.705      .42970373408249  .44587509147356      92098.552796467  .10965067558313
                                  0.0              0.0      .11899284899571       15.4783866      -25503.77927023        0.9876993

            SB1A      428661.41335234  428661.41337493      -.4297037340825  .44587509147356      -92098.44314579
                      -4.400961901869       -0.0005882      -.1189928489957     -164.5216134      25504.766969543

 IFUENB                  -214330.3525       428660.705      -.1118010369468  .44587509147274      92098.552796579  .10965067558467
                      -371231.0601341     -120.0000000      -.4316307743123     -104.5216134      -25503.77926917        0.9876993

            SB1B       -214334.518021  428661.41337493      .11180103694682  .44587509147274       -92098.4431459
                      -371229.4731043     -120.0005882      .43163077431231       75.4783866      25504.766968483

 IFUENC                  -214330.3525       428660.705      -.3179026971465  .44587509147754      92098.552797009  .10965067558503
                      371231.06013415      120.0000000      .31263792531791      135.4783866      -25503.77927147        0.9876993

            SB1C      -214326.8953314  428661.41337493       .3179026971465  .44587509147754      -92098.44314633
                      371233.87406622      119.9994118      -.3126379253179      -44.5216134      25504.766970785

 SB1A                 428661.41335234  428661.41337493      .42866141335E-3  .42866141337E-3      91.875303658295  91.875303658295
                      -4.400961901869       -0.0005882      -.4400961902E-8       -0.0005882      .6723324019E-19        0.0000000

            TERRA                 0.0              0.0      -.4286614134E-3  .42866141337E-3                  0.0
                                  0.0              0.0      .44009619019E-8      179.9994118                  0.0

 SB1B                  -214334.518021  428661.41337493       -.214334518E-3  .42866141337E-3      91.875303658295  91.875303658295
                      -371229.4731043     -120.0005882      -.3712294731E-3     -120.0005882      -.225514052E-15        0.0000000

            TERRA                 0.0              0.0      .21433451802E-3  .42866141337E-3                  0.0
                                  0.0              0.0       .3712294731E-3       59.9994118                  0.0

 SB1C                 -214326.8953314  428661.41337493      -.2143268953E-3  .42866141337E-3      91.875303658295  91.875303658295
                      371233.87406622      119.9994118      .37123387407E-3      119.9994118      .4996003611E-15        0.0000000

            TERRA                 0.0              0.0      .21432689533E-3  .42866141337E-3                  0.0
                                  0.0              0.0      -.3712338741E-3      -60.0005882                  0.0

 RSNSHA               -193.8992224053  2248.8188909148      -.1938992224E-6  .22488188909E-5      .00252859320207  .00252859320207
                       2240.444039847       94.9463382      .22404440398E-5       94.9463382      .3414601569E-20        0.0000000

            TERRA                 0.0              0.0      .19389922241E-6  .22488188909E-5                  0.0
                                  0.0              0.0       -.224044404E-5      -85.0536618                  0.0

 RSNSHB               2037.2310654676  2248.8188909148      .20372310655E-5  .22488188909E-5      .00252859320207  .00252859320207
                      -952.3003675464      -25.0536618      -.9523003675E-6      -25.0536618      .9857345924E-19        0.0000000

            TERRA                 0.0              0.0      -.2037231065E-5  .22488188909E-5                  0.0
                                  0.0              0.0      .95230036755E-6      154.9463382                  0.0

 RSNSHC               -1843.331843062  2248.8188909148      -.1843331843E-5  .22488188909E-5      .00252859320207  .00252859320207
                      -1288.143672301     -145.0536618      -.1288143672E-5     -145.0536618      -.362106585E-19        0.0000000

            TERRA                 0.0              0.0      .18433318431E-5  .22488188909E-5                  0.0
                                  0.0              0.0      .12881436723E-5       34.9463382                  0.0

 RSNNHA               -188.4139785571  2176.4354564721      2.0130544190349  2.0245629883918      44.054496699544  44.054496699544
                      2168.2646215057       94.9663111      .21556251986292        6.1120739      2202.7248349772     2202.7248350

            TERRA                 0.0              0.0      -2.013054419035  2.0245629883918                  0.0
                                  0.0              0.0      -.2155625198629     -173.8879261                  0.0

 RSNNHB               1971.9792336296  2176.4354564721      -.8198445912124  2.0245629883918      44.054496699544  44.054496699544
                      -920.9610188943      -25.0336889      -1.851137526016     -113.8879261      2202.7248349772     2202.7248350

            TERRA                 0.0              0.0      .81984459121239  2.0245629883918                  0.0
                                  0.0              0.0      1.8511375260162       66.1120739                  0.0

 RSNNHC               -1783.565255072  2176.4354564721      -1.193209827823  2.0245629883918      44.054496699544  44.054496699544
                      -1247.303602611     -145.0336889      1.6355750061533      126.1120739      2202.7248349772     2202.7248350

            TERRA                 0.0              0.0      1.1932098278226  2.0245629883918                  0.0
                                  0.0              0.0      -1.635575006153      -53.8879261                  0.0

 X0001B               2037.2310653209  2248.8188909561      .89756719149E-4  .21194618715E-3      .56151482811E-5  .56151482811E-5
                      -952.3003679577      -25.0536618      .19200238961E-3       64.9449882      -.2383142947024       -0.2383143

            TERRA                 0.0              0.0      -.8975671915E-4  .21194618715E-3                  0.0
                                  0.0              0.0      -.1920023896E-3     -115.0550118                  0.0

 X0002B               -214334.5180209   428661.4133745      .03498707758125  .04040038640283      .20402390268778  .20402390268778
                      -371229.4731039     -120.0005882      -.0202013767803      -30.0019382      -8659.043365752    -8659.0433658

            TERRA                 0.0              0.0      -.0349870775812  .04040038640283                  0.0
                                  0.0              0.0      .02020137678035      149.9980618                  0.0

 X0001A               -193.8992219758  2248.8188909561       .4294915072478  .43662640128021      46.422526161268  .95321307146E-7
                      2240.4440399256       94.9463382      .07861081030569       10.3721688      488.74713128458              0.0

            LN1A      -193.8992224053  2248.8188909148      -.4294915072478  .43662640128021      -46.42252606595
                       2240.444039847       94.9463382      -.0786108103057     -169.6278312      -488.7471312846

 SB1A                 428661.41335234  428661.41337493      .42928149923682  .44546818611514      92007.945252925  .99220947902E-7
                      -4.400961901869       -0.0005882      .11899285379258       15.4928805      -25504.76706854        0.0000000

            X0002A    428661.41335191   428661.4133745      -.4292814992368  .44546818611514      -92007.94525283
                      -4.400962020862       -0.0005882      -.1189928537926     -164.5071195      25504.767068539

 X0001B               2037.2310653209  2248.8188909561      -.1466669345973  .43662637431174      46.422346492846  .95321295371E-7
                      -952.3003679577      -25.0536618      -.4112558826819     -109.6278519      488.74711788986              0.0

            LN1B      2037.2310654676  2248.8188909148      .14666693459731  .43662637431174      -46.42234639752
                      -952.3003675464      -25.0536618      .41125588268187       70.3721481      -488.7471178899

 SB1B                  -214334.518021  428661.41337493      -.1115840859711  .44546232006935      92006.475818229   .9921834021E-7
                      -371229.4731043     -120.0005882      -.4312605597079     -104.5065402      -25505.36138228        0.0000000

            X0002B    -214334.5180209   428661.4133745      .11158408597112  .44546232006935      -92006.47581813
                      -371229.4731039     -120.0005882      .43126055970788       75.4934598       25505.36138228

 X0001C               -1843.331843345  2248.8188909561      -.2828246579156  .43662621962787      46.422599735676  .95321227842E-7
                      -1288.143671968     -145.0536618      .33264495868934      130.3721797      488.74691912539        0.0000000

            LN1C      -1843.331843062  2248.8188909148      .28282465791563  .43662621962787      -46.42259964035
                      -1288.143672301     -145.0536618      -.3326449586893      -49.6278203      -488.7469191254

 SB1C                 -214326.8953314  428661.41337493      -.3176974132657  .44548064605396      92010.768394795  .99226504346E-7
                      371233.87406622      119.9994118      .31228410080075      135.4923197      -25504.57986074        0.0000000

            X0002C     -214326.895331   428661.4133745      .31769741326571  .44548064605396       -92010.7683947
                       371233.8740659      119.9994118      -.3122841008008      -44.5076803      25504.579860736

 XX0005               428661.41335191   428661.4133745                  0.0              0.0                  0.0              0.0
                      -4.400962020862       -0.0005882                  0.0              0.0                  0.0              0.0

            X0002A    428661.41335191   428661.4133745                  0.0              0.0                  0.0
                      -4.400962020862       -0.0005882                  0.0              0.0                  0.0

 XX0003               -214334.5180209   428661.4133745                  0.0              0.0                  0.0              0.0
                      -371229.4731039     -120.0005882                  0.0              0.0                  0.0              0.0

            X0002B    -214334.5180209   428661.4133745                  0.0              0.0                  0.0
                      -371229.4731039     -120.0005882                  0.0              0.0                  0.0

 XX0004                -214326.895331   428661.4133745                  0.0              0.0                  0.0              0.0
                       371233.8740659      119.9994118                  0.0              0.0                  0.0              0.0

            X0002C     -214326.895331   428661.4133745                  0.0              0.0                  0.0
                       371233.8740659      119.9994118                  0.0              0.0                  0.0

 X0001A               -193.8992219758  2248.8188909561      -.2111573066E-3  .21194618715E-3      .56151482811E-5  .56151482811E-5
                      2240.4440399256       94.9463382      -.1826959586E-4     -175.0550118      -.2383142947024       -0.2383143

            TERRA                 0.0              0.0      .21115730657E-3  .21194618715E-3                  0.0
                                  0.0              0.0      .18269595862E-4        4.9449882                  0.0

 X0001A               -193.8992219758  2248.8188909561      -.4288553125739  .42886118785911       44.09208052672  91960.959225963
                      2240.4440399256       94.9463382      .00224484500195      179.7000877      -480.1955276736        0.0000000

            X0002A    428661.41335191   428661.4133745      .42885531257388  .42886118785911      91916.867145436
                      -4.400962020862       -0.0005882      -.0022448450019       -0.2999123      480.19552767363

 X0001B               2037.2310653209  2248.8188909561      .21637174908619  .42886118785911      44.092080526721  91960.959225963
                      -952.3003679577      -25.0536618      .37027717273593       59.7000877      -480.1955276736        0.0000000

            X0002B    -214334.5180209   428661.4133745      -.2163717490862  .42886118785911      91916.867145436
                      -371229.4731039     -120.0005882      -.3702771727359     -120.2999123      480.19552767363

 X0001C               -1843.331843345  2248.8188909561       .2124835634877  .42886118785911      44.092080526723  91960.959225963
                      -1288.143671968     -145.0536618      -.3725220177379      -60.2999123      -480.1955276736        0.0000000

            X0002C     -214326.895331   428661.4133745      -.2124835634877  .42886118785911      91916.867145436
                       371233.8740659      119.9994118      .37252201773787      119.7000877      480.19552767363

 X0002C                -214326.895331   428661.4133745      -.0349884442738  .04040038640283       .2040239026867   .2040239026867
                       371233.8740659      119.9994118      -.0201990095994     -150.0019382      -8659.043365752    -8659.0433658

            TERRA                 0.0              0.0      .03498844427382  .04040038640283                  0.0
                                  0.0              0.0      .02019900959937       29.9980618                  0.0

 X0002A               428661.41335191   428661.4133745      .13666925765E-5  .04040038640283      .20402390268722  .20402390268722
                      -4.400962020862       -0.0005882      .04040038637971       89.9980618      -8659.043365752    -8659.0433658

            TERRA                 0.0              0.0      -.1366692576E-5  .04040038640283                  0.0
                                  0.0              0.0      -.0404003863797      -90.0019382                  0.0

 X0001C               -1843.331843345  2248.8188909561      .12140058742E-3  .21194618715E-3      .56151482811E-5  .56151482811E-5
                      -1288.143671968     -145.0536618      -.1737327937E-3      -55.0550118      -.2383142947024       -0.2383143

            TERRA                 0.0              0.0      -.1214005874E-3  .21194618715E-3                  0.0
                                  0.0              0.0      .17373279375E-3      124.9449882                  0.0

 X0001A               -193.8992219758  2248.8188909561      -.4250479983E-3  .08083842940884      -90.51452864419  .40842822933048
                      2240.4440399256       94.9463382      -.0808373119511      -90.3012623      -8.313294074191   -17334.2324257

            X0002A    428661.41335191   428661.4133745      .42504799828E-3  .08083842940884      90.922956873522
                      -4.400962020862       -0.0005882      .08083731195115       89.6987377      -17325.91913158

 X0001B               2037.2310653209  2248.8188909561      -.0697946417242  .08083842940884      -90.51452864419  .40842822933057
                      -952.3003679577      -25.0536618      .04078675833991      149.6987377      -8.313294074191   -17334.2324257

            X0002B    -214334.5180209   428661.4133745       .0697946417242  .08083842940884      90.922956873522
                      -371229.4731039     -120.0005882      -.0407867583399      -30.3012623      -17325.91913158

 X0001C               -1843.331843345  2248.8188909561      .07021968972248  .08083842940884      -90.51452864419  .40842822933008
                      -1288.143671968     -145.0536618      .04005055361123       29.6987377      -8.313294074191   -17334.2324257

            X0002C     -214326.895331   428661.4133745      -.0702196897225  .08083842940884      90.922956873522
                       371233.8740659      119.9994118      -.0400505536112     -150.3012623      -17325.91913158

 LN1A                 -193.8992224053  2248.8188909148      .42949170937039  .43662618846186       46.41994521029  2.3654485107456
                       2240.444039847       94.9463382      .07860852391968       10.3718689      488.74713604252    -1713.9776989

            VFF2A     -188.4139785571  2176.4354564721      -2.013054419035  2.0245629883918      -44.05449669954
                      2168.2646215057       94.9663111      -.2155625198629     -173.8879261      -2202.724834977

 LN1B                 2037.2310654676  2248.8188909148      -.1466688760167  .43662618846186      46.419945210291  2.3654485107461
                      -952.3003675464      -25.0536618      -.4112549929894     -109.6281311      488.74713604252    -1713.9776989

            VFF2B     1971.9792336296  2176.4354564721      .81984459121239  2.0245629883918      -44.05449669955
                      -920.9610188943      -25.0336889      1.8511375260162       66.1120739      -2202.724834977

 LN1C                 -1843.331843062  2248.8188909148      -.2828228333536  .43662618846186      46.419945210292  2.3654485107479
                      -1288.143672301     -145.0536618      .33264646906972      130.3718689      488.74713604252    -1713.9776989

            VFF2C     -1783.565255072  2176.4354564721      1.1932098278226  2.0245629883918      -44.05449669954
                      -1247.303602611     -145.0336889      -1.635575006153      -53.8879261      -2202.724834977
     Total network loss  P-loss  by summing injections =   2.763047208218E+05

Output for steady-state phasor switch currents.
      Node-K    Node-M            I-real            I-imag            I-magn          Degrees        Power            Reactive
      LN1A      COMPA        -1.65478720E-07    2.30645141E-06    2.31238001E-06      94.1037    2.59978075E-03    3.82366608E-05
      LN1B      COMPB         1.88885612E-06   -9.44770353E-07    2.11195845E-06     -26.5734    2.37387076E-03    6.29785654E-05
      LN1C      COMPC        -1.86886216E-06   -1.53418666E-06    2.41792772E-06    -140.6167    2.71059298E-03   -2.10326078E-04
      VFF2A     RSNNHA        2.01305442E+00    2.15562520E-01    2.02456299E+00       6.1121    4.40544967E+01    2.20272483E+03
      VFF2B     RSNNHB       -8.19844591E-01   -1.85113753E+00    2.02456299E+00    -113.8879    4.40544967E+01    2.20272483E+03
      VFF2C     RSNNHC       -1.19320983E+00    1.63557501E+00    2.02456299E+00     126.1121    4.40544967E+01    2.20272483E+03
      VFF2A     SE2A              Open              Open              Open             Open          Open              Open
      VFF2B     SE2B              Open              Open              Open             Open          Open              Open
      VFF2C     SE2C              Open              Open              Open             Open          Open              Open
      X0001B    XX0003            Open              Open              Open             Open          Open              Open
      X0001C    XX0004            Open              Open              Open             Open          Open              Open
      XX0005    X0002A            Open              Open              Open             Open          Open              Open
      XX0003    X0002B            Open              Open              Open             Open          Open              Open
      XX0004    X0002C            Open              Open              Open             Open          Open              Open
      X0001A    XX0005            Open              Open              Open             Open          Open              Open
      VFUENA    IFUENA        4.29703734E-01    1.18992849E-01    4.45875091E-01      15.4784    9.20985528E+04   -2.55037793E+04
      VFUENB    IFUENB       -1.11801037E-01   -4.31630774E-01    4.45875091E-01    -104.5216    9.20985528E+04   -2.55037793E+04
      VFUENC    IFUENC       -3.17902697E-01    3.12637925E-01    4.45875091E-01     135.4784    9.20985528E+04   -2.55037793E+04
      COMPA     RSNSHA       -1.65478720E-07    2.30645141E-06    2.31238001E-06      94.1037    2.59978075E-03    3.82366608E-05
      COMPB     RSNSHB        1.88885612E-06   -9.44770353E-07    2.11195845E-06     -26.5734    2.37387076E-03    6.29785654E-05
      COMPC     RSNSHC       -1.86886216E-06   -1.53418666E-06    2.41792772E-06    -140.6167    2.71059298E-03   -2.10326078E-04

Solution at nodes with known voltage.   Nodes that are shorted together by switches are shown as a group of names, with the printed
result applying to the composite group.   The entry "MVA" is  SQRT( P**2 + Q**2 )  in units of power,  while  "P.F."  is the
associated power factor.
              Node                Source  node  voltage             Injected  source  current              Injected  source  power
              name         Rectangular            Polar          Rectangular            Polar            P  and  Q    MVA and P.F.

               VFUENA
              IFUENA       428660.705       428660.705      .42970373408196  .44587509147367      92098.552796353  95564.565526522
                                  0.0              0.0      .11899284899807       15.4783866      -25503.77927073        0.9637312

               VFUENB
              IFUENB     -214330.3525       428660.705      -.1118010369493  .44587509147604      92098.552797355  95564.565527029
                      -371231.0601341     -120.0000000      -.4316307743151     -104.5216134      -25503.77926902        0.9637312

               VFUENC
              IFUENC     -214330.3525       428660.705      -.3179026971435  .44587509147523      92098.552796641  95564.565526856
                      371231.06013415      120.0000000      .31263792531765      135.4783866      -25503.77927095        0.9637312

  +++  Node  "COMPC "  has no connected linear branches.  Add (to ground) the conductance  G = 1.00000000E-18  mhos.
  +++  Node  "COMPB "  has no connected linear branches.  Add (to ground) the conductance  G = 1.00000000E-18  mhos.
  +++  Node  "COMPA "  has no connected linear branches.  Add (to ground) the conductance  G = 1.00000000E-18  mhos.
Card of names for time-step loop output.          |  LN1A  LN1B  LN1C  COMPA COMPB COMPC SB1A  SB1B  SB1C  SE2A  SE2B  SE2C  VFF2A
Card of names for time-step loop output.          |  VFF2B VFF2C IFUENAIFUENBIFUENC
Card of names for time-step loop output.          |-5VFF2A VFF2B VFF2B VFF2C VFF2C VFF2A LN1A  LN1B  LN1B  LN1C  LN1C  LN1A
Card of names for time-step loop output.          |-5SB1A  SB1B  SB1B  SB1C  SB1C  SB1A
Blank card ending requests for output variables.  |BLANK OUTPUT

Column headings for the  55   EMTP output variables follow.  These are divided among the 5 possible classes as follows ....
  First  27     output variables are electric-network voltage differences (upper voltage minus lower voltage);
  Next   6     output variables are branch currents (flowing from the upper node to the lower node);
  Next   22     output variables belong to MODELS (with "MODELS" an internally-added upper name of pair).
   Step      Time      LN1A       LN1B       LN1C       COMPA      COMPB      COMPC      SB1A       SB1B       SB1C       SE2A
 

                       SE2B       SE2C       VFF2A      VFF2B      VFF2C      IFUENA     IFUENB     IFUENC     VFF2A      VFF2B
                                                                                                               VFF2B      VFF2C

                       VFF2C      LN1A       LN1B       LN1C       SB1A       SB1B       SB1C       VFUENA     VFUENB     VFUENC
                       VFF2A      LN1B       LN1C       LN1A       SB1B       SB1C       SB1A       IFUENA     IFUENB     IFUENC

                       COMPA      COMPB      COMPC      MODELS     MODELS     MODELS     MODELS     MODELS     MODELS     MODELS
                       RSNSHA     RSNSHB     RSNSHC     ANVOL      LONG       R0F        R1F        X0F        X1F        RDIVX

                       MODELS     MODELS     MODELS     MODELS     MODELS     MODELS     MODELS     MODELS     MODELS     MODELS
                       RINSER     CLOSE1     RPPOS      RPCERO     LPPOS      LPCERO     CPPOS      CPCERO     XP         CR

                       MODELS     MODELS     MODELS     MODELS     MODELS
                       SIMET      ENC1       ENC2       ENC1AS     ENC2AS
 ***      Phasor I(0) = -1.6547872E-07                     Switch  "LN1A  "  to  "COMPA "  closed in the steady-state.
 ***      Phasor I(0) =  1.8888561E-06                     Switch  "LN1B  "  to  "COMPB "  closed in the steady-state.
 ***      Phasor I(0) = -1.8688622E-06                     Switch  "LN1C  "  to  "COMPC "  closed in the steady-state.
 ***      Phasor I(0) =  2.0130544E+00                     Switch  "VFF2A "  to  "RSNNHA"  closed in the steady-state.
 ***      Phasor I(0) = -8.1984459E-01                     Switch  "VFF2B "  to  "RSNNHB"  closed in the steady-state.
 ***      Phasor I(0) = -1.1932098E+00                     Switch  "VFF2C "  to  "RSNNHC"  closed in the steady-state.
 ***      Phasor I(0) =  4.2970373E-01                     Switch  "VFUENA"  to  "IFUENA"  closed in the steady-state.
 ***      Phasor I(0) = -1.1180104E-01                     Switch  "VFUENB"  to  "IFUENB"  closed in the steady-state.
 ***      Phasor I(0) = -3.1790270E-01                     Switch  "VFUENC"  to  "IFUENC"  closed in the steady-state.
 ***      Phasor I(0) = -1.6547872E-07                     Switch  "COMPA "  to  "RSNSHA"  closed in the steady-state.
 ***      Phasor I(0) =  1.8888561E-06                     Switch  "COMPB "  to  "RSNSHB"  closed in the steady-state.
 ***      Phasor I(0) = -1.8688622E-06                     Switch  "COMPC "  to  "RSNSHC"  closed in the steady-state.
      0       0.0  -193.89922 2037.23107 -1843.3318 -193.89922 2037.23107 -1843.3318 428661.413 -214334.52  -214326.9        0.0
                          0.0        0.0 -188.41398 1971.97923 -1783.5653 428660.705 -214330.35 -214330.35 -2160.3932 3755.54449
                   -1595.1513 -2231.1303 3880.56291 -1649.4326 642995.931 -7.6226896 -642988.31 .429703734 -.11180104  -.3179027
                   -.16548E-6 .188886E-5 -.18689E-5        0.0   134.9084   1.283171   1.103074   11.55868   9.936383    .111014
                         400.    .046189    .019088    .261571    .434247   1.259751    .016886    .008669   2149.611   42.99222
                          1.0        0.0        1.0        0.0        0.0
    500     .5E-3  -541.99508 2161.12214 -1619.1271 -541.99508 2161.12214 -1619.1271 423384.584 -153622.63 -269761.96        0.0
                          0.0        0.0 -525.28561 2091.77093 -1566.4853  423383.18 -153618.26 -269764.92 -2617.0565 3658.25626
                   -1041.1997 -2703.1172  3780.2492  -1077.132 577007.213 116139.327 -693146.54 .405820904 -.04291036 -.36291055
                   -.61418E-6 .230016E-5 -.17997E-5        0.0   134.9084   1.283171   1.103074   11.55868   9.936383    .111014
                         400.    .046189    .019088    .261571    .434247   1.259751    .016886    .008669   2149.611   42.99222
                          1.0        0.0        1.0        0.0        0.0
   1000     .1E-2  -876.74437 2231.79882 -1355.0544 -876.74437 2231.79882 -1355.0544 407682.594 -89128.026 -318554.57        0.0
                          0.0        0.0 -849.22165 2160.05558 -1310.8339 407680.557 -89123.572 -318556.98 -3009.2772 3470.88952
                   -461.61229 -3108.5432 3586.85327 -478.31007 496810.619 229426.542 -726237.16 .371925271 .027046984 -.39897225
                   -.96341E-6  .25027E-5 -.14257E-5        0.0   134.9084   1.283171   1.103074   11.55868   9.936383    .111014
                         400.    .046189    .019088    .261571    .434247   1.259751    .016886    .008669   2149.611   42.99222
                          1.0        0.0        1.0        0.0        0.0
   1500     .0015  -1189.9069 2247.52196 -1057.6151 -1189.9069 2247.52196 -1057.6151 381942.066 -22438.776 -359503.29        0.0
                          0.0        0.0 -1152.2497 2175.15387 -1022.9042 381939.485 -22434.368 -359505.12 -3327.4036 3198.05807
                   129.345492 -3437.4289 3305.13701 132.291847 404380.842 337064.514 -741445.36 .328872838  .09633771 -.42521055
                   -.12323E-5 .245579E-5 -.99605E-6        0.0   134.9084   1.283171   1.103074   11.55868   9.936383    .111014
                         400.    .046189    .019088    .261571    .434247   1.259751    .016886    .008669   2149.611   42.99222
                          1.0        0.0        1.0        0.0        0.0
   2000      .002  -1473.7678 2207.90259 -734.13482 -1473.7678 2207.90259 -734.13482  346796.93 44802.9544 -391599.88        0.0
                          0.0        0.0 -1426.9021  2136.6909  -709.7888 346793.795 44807.2448 -391601.04  -3563.593 2846.47971
                   717.113293 -3681.6704 2942.03741  739.63296 301993.975 436402.839 -738396.81 .277713766 .163260652 -.44097442
                   -.16016E-5 .219501E-5  -.8209E-6        0.0   134.9084   1.283171   1.103074   11.55868   9.936383    .111014
                         400.    .046189    .019088    .261571    .434247   1.259751    .016886    .008669   2149.611   42.99222
                          1.0        0.0        1.0        0.0        0.0
   2500     .0025  -1721.3407  2113.9179 -392.57722 -1721.3407  2113.9179 -392.57722 303112.502 110941.488 -414053.99        0.0
                          0.0        0.0 -1666.4227 2045.61723  -379.1945 303108.891 110945.554 -414054.45   -3712.04 2424.81173
                   1287.22823 -3835.2586 2506.49511 1328.76346 192171.014 524995.477 -717166.49 .219722223  .22616069 -.44588291
                   -.18017E-5 .218771E-5   -.386E-6        0.0   134.9084   1.283171   1.103074   11.55868   9.936383    .111014
                         400.    .046189    .019088    .261571    .434247   1.259751    .016886    .008669   2149.611   42.99222
                          1.0        0.0        1.0        0.0        0.0
   3000      .003  -1926.5292 1967.88186 -41.352625 -1926.5292 1967.88186 -41.352625 251964.409 174348.288  -426312.7        0.0
                          0.0        0.0 -1864.9093 1904.17306 -39.263737 251960.441 174352.016 -426312.46 -3769.0824 1943.43679
                   1825.64558 -3894.4111 2009.23448 1885.17661 77616.1206 600660.985 -678277.11 .156319593 .283492294 -.43981189
                   -.19984E-5 .205816E-5 -.45507E-7        0.0   134.9084   1.283171   1.103074   11.55868   9.936383    .111014
                         400.    .046189    .019088    .261571    .434247   1.259751    .016886    .008669   2149.611   42.99222
                          1.0        0.0        1.0        0.0        0.0
   3500     .0035  -2084.2789 1773.38941 310.889472 -2084.2789 1773.38941 310.889472 194612.133 233462.046 -428074.18        0.0
                          0.0        0.0 -2017.4747 1715.84132 301.633395 194607.888 233465.353 -428073.24  -3733.316 1414.20792
                   2319.10811 -3857.6683 1462.49994 2395.16836 -38849.913 661536.225 -622686.31 .089071326 .333841645 -.42291297
                   -.22919E-5 .180328E-5 .318192E-6        0.0   134.9084   1.283171   1.103074   11.55868   9.936383    .111014
                         400.    .046189    .019088    .261571    .434247   1.259751    .016886    .008669   2149.611   42.99222
                          1.0        0.0        1.0        0.0        0.0
   4000      .004  -2190.7058 1535.22973 655.476031 -2190.7058 1535.22973 655.476031 132467.829  286827.21 -419295.04        0.0
                          0.0        0.0 -2120.3649 1485.26077 635.104118 132463.443 286829.997 -419293.44 -3605.6257 850.156655
                   2755.46901 -3725.9355   879.7537 2846.18179 -154359.38 706122.249 -551762.87 .019622167 .375974529  -.3955967
                   -.25045E-5 .160759E-5 .669213E-6        0.0   134.9084   1.283171   1.103074   11.55868   9.936383    .111014
                         400.    .046189    .019088    .261571    .434247   1.259751    .016886    .008669   2149.611   42.99222
                          1.0        0.0        1.0        0.0        0.0
   4500     .0045  -2243.1933  1259.2692 983.924055 -2243.1933  1259.2692 983.924055 67061.7622 333129.718 -400191.48        0.0
                          0.0        0.0 -2171.0442 1218.10796 952.936222 67057.3081 333131.936 -400189.24 -3389.1521  265.17174
                   3123.98041 -3502.4625 275.345143 3227.11731 -266067.96 733321.199 -467253.24 -.05030102 .408845115  -.3585441
                   -.25399E-5 .130489E-5 .100787E-5        0.0   134.9084   1.283171   1.103074   11.55868   9.936383    .111014
                         400.    .046189    .019088    .261571    .434247   1.259751    .016886    .008669   2149.611   42.99222
                          1.0        0.0        1.0        0.0        0.0
   5000      .005  -2240.4437  952.30018 1288.14353 -2240.4437  952.30018 1288.14353 4.39955416 371229.474 -371233.87        0.0
                          0.0        0.0 -2168.2636 920.960439 1247.30312 -.45661E-7  371231.06 -371231.06  -3089.224 -326.34268
                   3415.56667 -3192.7439 -335.84335 3528.58724 -371225.07 742463.347 -371238.27 -.11899272 .431652119  -.3126594
                   -.24619E-5 .969232E-6 .137906E-5        0.0   134.9084   1.283171   1.103074   11.55868   9.936383    .111014
                         400.    .046189    .019088    .261571    .434247   1.259751    .016886    .008669   2149.611   42.99222
                          1.0        0.0        1.0        0.0        0.0
   5500     .0055  -2182.5296 621.883642 1560.64598 -2182.5296 621.883642 1560.64598 -67053.073 400188.328 -333135.26        0.0
                          0.0        0.0 -2112.0954 601.136999 1510.95836 -67057.308 400189.244 -333131.94 -2713.2324 -909.82136
                   3623.05372 -2804.4133 -938.76234 3743.17561  -467241.4 733323.584 -266082.18 -.18475123 .443828816 -.25907759
                   -.20817E-5 .646372E-6 .154926E-5        0.0   134.9084   1.283171   1.103074   11.55868   9.936383    .111014
                         400.    .046189    .019088    .261571    .434247   1.259751    .016886    .008669   2149.611   42.99222
                          1.0        0.0        1.0        0.0        0.0
   6000      .006  -2070.8704  276.15228 1794.71807 -2070.8704  276.15228 1794.71807 -132459.48 419293.218 -286833.74        0.0
                          0.0        0.0 -2003.9172 266.509951 1737.40727 -132463.44  419293.44   -286830. -2270.4272 -1470.8973
                   3741.32449 -2347.0226 -1518.5658 3865.58843 -551752.69  706126.96 -154374.27 -.24596194 .445077671 -.19911573
                   -.19478E-5 .278998E-6 .183936E-5        0.0   134.9084   1.283171   1.103074   11.55868   9.936383    .111014
                         400.    .046189    .019088    .261571    .434247   1.259751    .016886    .008669   2149.611   42.99222
                          1.0        0.0        1.0        0.0        0.0
   6500     .0065  -1908.2217 -76.377683 1984.59941 -1908.2217 -76.377683 1984.59941 -194604.28 428073.715 -233469.43        0.0
                          0.0        0.0 -1846.3999 -74.677443 1921.07731 -194607.89  428073.24 -233465.35 -1771.7224 -1995.7548
                   3767.47718  -1831.844 -2060.9771 3892.82113   -622678. 661543.147 -38865.148 -.30111569 .435366956 -.13425127
                   -.19055E-5 -.80553E-7 .215648E-5        0.0   134.9084   1.283171   1.103074   11.55868   9.936383    .111014
                         400.    .046189    .019088    .261571    .434247   1.259751    .016886    .008669   2149.611   42.99222
                          1.0        0.0        1.0        0.0        0.0
   7000      .007   -1698.586 -427.02721 2125.61317  -1698.586 -427.02721 2125.61317 -251957.31 426313.626 -174356.32        0.0
                          0.0        0.0 -1643.4159 -414.02712   2057.443 -251960.44 426312.457 -174352.02 -1229.3888 -2471.4701
                   3700.85888 -1271.5588 -2552.6404 3824.19914 -678270.93 600669.946 77600.9848 -.34885492 .414936034 -.06608111
                   -.17451E-5 -.44898E-6 .208034E-5        0.0   134.9084   1.283171   1.103074   11.55868   9.936383    .111014
                         400.    .046189    .019088    .261571    .434247   1.259751    .016886    .008669   2149.611   42.99222
                          1.0        0.0        1.0        0.0        0.0
   7500     .0075  -1447.1256 -767.16174 2214.28737 -1447.1256 -767.16174 2214.28737 -303106.28 414056.267 -110949.99        0.0
                          0.0        0.0 -1399.9658 -743.18199 2143.14778 -303108.89 414054.446 -110945.55 -656.78379 -2886.3298
                   3543.11357 -679.96388 -2981.4491   3661.413 -717162.54 525006.258 192156.284 -.38800406 .384287953 .003716111
                   -.15152E-5 -.79385E-6 .253646E-5        0.0   134.9084   1.283171   1.103074   11.55868   9.936383    .111014
                         400.    .046189    .019088    .261571    .434247   1.259751    .016886    .008669   2149.611   42.99222
                          1.0        0.0        1.0        0.0        0.0
   8000      .008  -1160.0317 -1088.4065 2248.43824 -1160.0317 -1088.4065 2248.43824 -346791.78 391603.478 -44811.695        0.0
                          0.0        0.0 -1122.0437 -1054.0373 2176.08099  -346793.8  391601.04 -44807.245 -68.006355 -3230.1183
                   3298.12467 -71.625208 -3336.8448 3408.46996 -738395.26 436415.173 301980.089 -.41760016 .344177871 .073422289
                   -.11242E-5 -.11292E-5 .248058E-5        0.0   134.9084   1.283171   1.103074   11.55868   9.936383    .111014
                         400.    .046189    .019088    .261571    .434247   1.259751    .016886    .008669   2149.611   42.99222
                          1.0        0.0        1.0        0.0        0.0
   8500     .0085  -844.37516 -1382.8505 2227.22564 -844.37516 -1382.8505 2227.22564 -381938.11 359508.106 22430.0079        0.0
                          0.0        0.0 -816.49295 -1338.9389 2155.43184 -381939.48 359505.117 22434.3679 522.445938 -3494.3707
                    2971.9248 538.475318 -3610.0761  3071.6008 -741446.22 337078.098 404368.122 -.43691184 .295592139 .141319705
                   -.91528E-6 -.13757E-5 .240444E-5        0.0   134.9084   1.283171   1.103074   11.55868   9.936383    .111014
                         400.    .046189    .019088    .261571    .434247   1.259751    .016886    .008669   2149.611   42.99222
                          1.0        0.0        1.0        0.0        0.0
   9000      .009  -507.92594 -1643.2447 2151.17067 -507.92594 -1643.2447 2151.17067 -407679.87 318560.456  89119.414        0.0
                          0.0        0.0 -490.83743 -1590.8713 2081.70871 -407680.56 318556.985  89123.572 1100.03384   -3672.58
                   2572.54615  1135.3188 -3794.4154 2659.09661 -726240.33 229441.042 496799.284 -.44546691 .239728743 .205738163
                   -.55392E-6 -.16904E-5 .224449E-5        0.0   134.9084   1.283171   1.103074   11.55868   9.936383    .111014
                         400.    .046189    .019088    .261571    .434247   1.259751    .016886    .008669   2149.611   42.99222
                          1.0        0.0        1.0        0.0        0.0
   9500     .0095  -158.97169  -1863.176 2022.14769 -158.97169  -1863.176 2022.14769 -423383.19  269768.79 153614.404        0.0
                          0.0        0.0 -153.09744 -1803.6304 1956.72781 -423383.18 269764.922 153618.258 1650.53294 -3760.3582
                   2109.82525 1704.20431 -3885.3237 2181.11939 -693151.98 116154.386 576997.597 -.44305342 .177962594 .265090829
                    -.1602E-6 -.19935E-5 .221049E-5        0.0   134.9084   1.283171   1.103074   11.55868   9.936383    .111014
                         400.    .046189    .019088    .261571    .434247   1.259751    .016886    .008669   2149.611   42.99222
                          1.0        0.0        1.0        0.0        0.0
  10000       .01  193.899407 -2037.2309 1843.33147 193.899407 -2037.2309 1843.33147 -428661.41 214334.519 214326.895        0.0
                          0.0        0.0 188.413089 -1971.9785 1783.56545 -428660.71 214330.353 214330.352 2160.39163  -3755.544
                   1595.15236 2231.13028 -3880.5623 1649.43206 -642995.93 7.62310906  642988.31 -.42972802 .111813181 .317914842
                   .192342E-6  -.2133E-5 .182691E-5        0.0   134.9084   1.283171   1.103074   11.55868   9.936383    .111014
                         400.    .046189    .019088    .261571    .434247   1.259751    .016886    .008669   2149.611   42.99222
                          1.0        0.0        1.0        0.0        0.0
  10500     .0105  541.996255 -2161.1225 1619.12626 541.996255 -2161.1225 1619.12626 -423384.56 153622.619 269761.946        0.0
                          0.0        0.0 525.285268 -2091.7705 1566.48523 -423383.18 153618.258 269764.922 2617.05577 -3658.2557
                   1041.19997 2703.11877 -3780.2488    1077.13 -577007.18 -116139.33  693146.51 -.40582208  .04291095 .362911131
                   .568407E-6 -.22221E-5 .165391E-5        0.0   134.9084   1.283171   1.103074   11.55868   9.936383    .111014
                         400.    .046189    .019088    .261571    .434247   1.259751    .016886    .008669   2149.611   42.99222
                          1.0        0.0        1.0        0.0        0.0
  11000      .011  876.744025 -2231.7984 1355.05439 876.744025 -2231.7984 1355.05439  -407682.6 89128.0266 318554.569        0.0
                          0.0        0.0 849.222738 -2160.0559 1310.83317 -407680.56  89123.572 318556.985 3009.27865 -3470.8891
                   461.610436 3108.54244 -3586.8528 478.310363 -496810.62 -229426.54 726237.164 -.37192438 -.02704743 .398971808
                   .915228E-6  -.2194E-5  .15063E-5        0.0   134.9084   1.283171   1.103074   11.55868   9.936383    .111014
                         400.    .046189    .019088    .261571    .434247   1.259751    .016886    .008669   2149.611   42.99222
                          1.0        0.0        1.0        0.0        0.0
  11500     .0115  1189.90555 -2247.5211 1057.61556 1189.90555 -2247.5211 1057.61556 -381942.11 22438.7987 359503.312        0.0
                          0.0        0.0 1152.25012 -2175.1539  1022.9038 -381939.48 22434.3679 359505.117 3327.40404 -3198.0577
                   -129.34632 3437.42666 -3305.1367    -132.29 -404380.91 -337064.51 741445.423 -.32886936 -.09633946 .425208819
                   .121594E-5 -.25533E-5 .110996E-5        0.0   134.9084   1.283171   1.103074   11.55868   9.936383    .111014
                         400.    .046189    .019088    .261571    .434247   1.259751    .016886    .008669   2149.611   42.99222
                          1.0        0.0        1.0        0.0        0.0
  12000      .012  1473.76694 -2207.9021 734.135114 1473.76694 -2207.9021 734.135114 -346796.95 -44802.944 391599.894        0.0
                          0.0        0.0 1426.90377 -2136.6916 709.787862  -346793.8 -44807.245  391601.04  3563.5954 -2846.4795
                   -717.11591   3681.669 -2942.0372 -739.63183 -301994.01 -436402.84 738396.845  -.2777162 -.16325944 .440975639
                   .157678E-5 -.25207E-5 .716362E-6        0.0   134.9084   1.283171   1.103074   11.55868   9.936383    .111014
                         400.    .046189    .019088    .261571    .434247   1.259751    .016886    .008669   2149.611   42.99222
                          1.0        0.0        1.0        0.0        0.0
  12500     .0125  1721.34013 -2113.9175 392.577382 1721.34013 -2113.9175 392.577382  -303112.5 -110941.49 414053.991        0.0
                          0.0        0.0 1666.42163 -2045.6166 379.194987 -303108.89 -110945.55 414054.446 3712.03824 -2424.8116
                   -1287.2266 3835.25764 -2506.4949 -1328.7627 -192171.02 -524995.48 717166.495 -.21972328 -.22616016 .445883443
                    .18667E-5 -.21059E-5 .409724E-6        0.0   134.9084   1.283171   1.103074   11.55868   9.936383    .111014
                         400.    .046189    .019088    .261571    .434247   1.259751    .016886    .008669   2149.611   42.99222
                          1.0        0.0        1.0        0.0        0.0
  13000      .013  1926.52816 -1967.8813 41.3531184 1926.52816 -1967.8813 41.3531184 -251964.42 -174348.28 426312.701        0.0
                          0.0        0.0 1864.90971 -1904.1732 39.2634832 -251960.44 -174352.02 426312.457 3769.08291 -1943.4367
                   -1825.6462 3894.40943 -2009.2344  -1885.175 -77616.134 -600660.98 678277.118 -.15632074 -.28349172 .439812463
                   .195468E-5 -.20354E-5 .451801E-7        0.0   134.9084   1.283171   1.103074   11.55868   9.936383    .111014
                         400.    .046189    .019088    .261571    .434247   1.259751    .016886    .008669   2149.611   42.99222
                          1.0        0.0        1.0        0.0        0.0
  13500     .0135  2084.27827 -1773.3891 -310.88916 2084.27827 -1773.3891 -310.88916 -194612.14 -233462.04 428074.181        0.0
                          0.0        0.0 2017.47553 -1715.8417 -301.63379 -194607.89 -233465.35  428073.24 3733.31727  -1414.208
                   -2319.1093 3857.66738    -1462.5 -2395.1674 38849.9074 -661536.23 622686.318 -.08906982  -.3338424 .422912219
                   .218604E-5 -.17497E-5 -.32256E-6        0.0   134.9084   1.283171   1.103074   11.55868   9.936383    .111014
                         400.    .046189    .019088    .261571    .434247   1.259751    .016886    .008669   2149.611   42.99222
                          1.0        0.0        1.0        0.0        0.0
  14000      .014  2190.70671 -1535.2303 -655.47643 2190.70671 -1535.2303 -655.47643 -132467.85  -286827.2 419295.048        0.0
                          0.0        0.0 2120.36422 -1485.2605 -635.10371 -132463.44   -286830.  419293.44 3605.62474 -850.15681
                   -2755.4679   3725.937 -879.75386 -2846.1831 154359.355 -706122.25 551762.894 -.01962398 -.37597363 .395597607
                   .223244E-5 -.16959E-5 -.65018E-6        0.0   134.9084   1.283171   1.103074   11.55868   9.936383    .111014
                         400.    .046189    .019088    .261571    .434247   1.259751    .016886    .008669   2149.611   42.99222
                          1.0        0.0        1.0        0.0        0.0
  14500     .0145  2243.19223 -1259.2688 -983.92341 2243.19223 -1259.2688 -983.92341 -67061.759 -333129.72 400191.479        0.0
                          0.0        0.0 2171.04386 -1218.1079 -952.93598 -67057.308 -333131.94 400189.244 3389.15174  -265.1719
                   -3123.9798 3502.46105  -275.3454 -3227.1156  266067.96  -733321.2 467253.238 .050304129 -.40884667 .358542539
                   .235441E-5 -.12129E-5 -.10278E-5        0.0   134.9084   1.283171   1.103074   11.55868   9.936383    .111014
                         400.    .046189    .019088    .261571    .434247   1.259751    .016886    .008669   2149.611   42.99222
                          1.0        0.0        1.0        0.0        0.0
  % % % % % %   Suspended simulation;  plot data space exhausted;  SPY SPACE is required.   LIMBUF =  840000.
  % % % % % %   Suspended simulation;  plot data space exhausted;  SPY SPACE is required.   LIMBUF =  840000.
  +++  Time-sharing disabled.   Send  user-keyed interrupt to silence alarm.
   Current values.  INDBUF  INDBEG  LIMBUF  MFLUSH  NUMDCD  KCARD1  KCARD2
                    839994      50  840000    1000     230       1     231
Plot timespan now in memory (in sec) = 0.00000000E+00   1.49990000E-02
   ++++  Begin plot-data copy from memory to disk.   MFLUSH, INDBUF, N4, Tbeg,  Tend = 1001  839994       1  -1.00000E+00
1.00000E+19
  15000      .015  2240.44284 -952.29989  -1288.143 2240.44284 -952.29989  -1288.143  -4.401805 -371229.47 371233.874        0.0
                          0.0        0.0 2168.25943 -920.95857 -1247.3009 -.61533E-6 -371231.06  371231.06   3089.218   326.3423
                   -3415.5603 3192.74273 335.843066 -3528.5858 371225.071 -742463.35 371238.276 .118993235 -.43165238 .312659141
                   .217061E-5 -.10514E-5 -.14603E-5        0.0   134.9084   1.283171   1.103074   11.55868   9.936383    .111014
                         400.    .046189    .019088    .261571    .434247   1.259751    .016886    .008669   2149.611   42.99222
                          1.0        0.0        1.0        0.0        0.0
  15500     .0155  2182.52773 -621.88289 -1560.6448 2182.52773 -621.88289 -1560.6448 67053.0726 -400188.33 333135.256        0.0
                          0.0        0.0 2112.09557 -601.13728 -1510.9583 67057.3081 -400189.24 333131.936 2713.23286 909.821005
                   -3623.0539 2804.41062 938.761953 -3743.1726 467241.401 -733323.58 266082.183 .184752053 -.44382923 .259077176
                   .239367E-5 -.68892E-6 -.17049E-5        0.0   134.9084   1.283171   1.103074   11.55868   9.936383    .111014
                         400.    .046189    .019088    .261571    .434247   1.259751    .016886    .008669   2149.611   42.99222
                          1.0        0.0        1.0        0.0        0.0
  16000      .016  2070.87099 -276.15283 -1794.7182 2070.87099 -276.15283 -1794.7182 132459.477 -419293.22 286833.742        0.0
                          0.0        0.0 2003.91861 -266.51088 -1737.4077 132463.443 -419293.44 286829.997 2270.42949 1470.89684
                   -3741.3263 2347.02383 1518.56532 -3865.5892 551752.695 -706126.96 154374.265  .24596136 -.44507738 .199116021
                   .237576E-5 -.26602E-6 -.18256E-5        0.0   134.9084   1.283171   1.103074   11.55868   9.936383    .111014
                         400.    .046189    .019088    .261571    .434247   1.259751    .016886    .008669   2149.611   42.99222
                          1.0        0.0        1.0        0.0        0.0
  16500     .0165  1908.22166 76.3774892 -1984.5992 1908.22166 76.3774892 -1984.5992 194604.286 -428073.72 233469.431        0.0
                          0.0        0.0 1846.39832 74.6779572 -1921.0763 194607.888 -428073.24 233465.353 1771.72037 1995.75424
                   -3767.4746 1831.84417 2060.97664 -3892.8208 622678.002 -661543.15 38865.1446 .301116194 -.43536721 .134251014
                   .204475E-5  .81339E-7 -.19982E-5        0.0   134.9084   1.283171   1.103074   11.55868   9.936383    .111014
                         400.    .046189    .019088    .261571    .434247   1.259751    .016886    .008669   2149.611   42.99222
                          1.0        0.0        1.0        0.0        0.0
  17000      .017  1698.58406 427.027857 -2125.6119 1698.58406 427.027857 -2125.6119 251957.298 -426313.62 174356.324        0.0
                          0.0        0.0 1643.41571 414.026961 -2057.4427 251960.441 -426312.46 174352.016 1229.38875 2471.46963
                   -3700.8584  1271.5562 2552.63977  -3824.196  678270.92 -600669.95 -77600.974 .348854631 -.41493589  .06608126
                   .185287E-5 .452158E-6 -.21346E-5        0.0   134.9084   1.283171   1.103074   11.55868   9.936383    .111014
                         400.    .046189    .019088    .261571    .434247   1.259751    .016886    .008669   2149.611   42.99222
                          1.0        0.0        1.0        0.0        0.0
  17500     .0175  1447.12534 767.161623  -2214.287 1447.12534 767.161623  -2214.287 303106.278 -414056.27  110949.99        0.0
                          0.0        0.0 1399.96566 743.181787 -2143.1474 303108.891 -414054.45 110945.554 656.783876 2886.32924
                   -3543.1131 679.963715 2981.44859 -3661.4123 717162.546 -525006.26 -192156.29 .388004546 -.38428819 -.00371635
                   .159585E-5 .753161E-6  -.2349E-5        0.0   134.9084   1.283171   1.103074   11.55868   9.936383    .111014
                         400.    .046189    .019088    .261571    .434247   1.259751    .016886    .008669   2149.611   42.99222
                          1.0        0.0        1.0        0.0        0.0
  18000      .018  1160.03212 1088.40603 -2248.4381 1160.03212 1088.40603 -2248.4381 346791.783 -391603.48 44811.6951        0.0
                          0.0        0.0  1122.0439 1054.03694 -2176.0808 346793.795 -391601.04 44807.2448 68.0069619 3230.11777
                   -3298.1247 71.6260867 3336.84418 -3408.4703 738395.261 -436415.17 -301980.09 .417600064 -.34417782 -.07342224
                   .119477E-5 .120885E-5 -.24035E-5        0.0   134.9084   1.283171   1.103074   11.55868   9.936383    .111014
                         400.    .046189    .019088    .261571    .434247   1.259751    .016886    .008669   2149.611   42.99222
                          1.0        0.0        1.0        0.0        0.0
  18500     .0185  844.375107 1382.85021 -2227.2253 844.375107 1382.85021 -2227.2253  381938.12 -359508.11 -22430.011        0.0
                          0.0        0.0  816.49369 1338.93823 -2155.4319 381939.485 -359505.12 -22434.368 -522.44454 3494.37015
                   -2971.9256  -538.4751 3610.07553 -3071.6004 741446.229  -337078.1 -404368.13 .436912387 -.29559241 -.14131998
                   .932132E-6 .147945E-5 -.22978E-5        0.0   134.9084   1.283171   1.103074   11.55868   9.936383    .111014
                         400.    .046189    .019088    .261571    .434247   1.259751    .016886    .008669   2149.611   42.99222
                          1.0        0.0        1.0        0.0        0.0
  19000      .019  507.926032 1643.24445 -2151.1705 507.926032 1643.24445 -2151.1705 407679.869 -318560.46 -89119.414        0.0
                          0.0        0.0 490.838319 1590.87056 -2081.7089 407680.557 -318556.98 -89123.572 -1100.0322 3672.57944
                   -2572.5472 -1135.3184 3794.41494 -2659.0965 726240.325 -229441.04 -496799.28  .44546673 -.23972865 -.20573808
                   .538662E-6 .161237E-5 -.23218E-5        0.0   134.9084   1.283171   1.103074   11.55868   9.936383    .111014
                         400.    .046189    .019088    .261571    .434247   1.259751    .016886    .008669   2149.611   42.99222
                          1.0        0.0        1.0        0.0        0.0
  19500     .0195  158.971043  1863.1761 -2022.1471 158.971043  1863.1761 -2022.1471 423383.192 -269768.79  -153614.4        0.0
                          0.0        0.0  153.09722 1803.63028 -1956.7275  423383.18 -269764.92 -153618.26 -1650.5331 3760.35779
                   -2109.8247 -1704.2051 3885.32325 -2181.1182  693151.98 -116154.39 -576997.59  .44305242 -.17796209 -.26509033
                   .176289E-6 .187151E-5 -.21048E-5        0.0   134.9084   1.283171   1.103074   11.55868   9.936383    .111014
                         400.    .046189    .019088    .261571    .434247   1.259751    .016886    .008669   2149.611   42.99222
                          1.0        0.0        1.0        0.0        0.0
  20000       .02  -193.89823  2037.2301 -1843.3319 -193.89823  2037.2301 -1843.3319 428661.414 -214334.52  -214326.9        0.0
                          0.0        0.0 -188.41378 1971.97869 -1783.5649 428660.705 -214330.35 -214330.35 -2160.3925 3755.54359
                   -1595.1511 -2231.1283 3880.56197 -1649.4336 642995.932 -7.6231082 -642988.31 .429728376 -.11181336 -.31791502
                   -.20965E-6 .204256E-5 -.19182E-5        0.0   134.9084   1.283171   1.103074   11.55868   9.936383    .111014
                         400.    .046189    .019088    .261571    .434247   1.259751    .016886    .008669   2149.611   42.99222
                          1.0        0.0        1.0        0.0        0.0
  20500     .0205  -541.99427 2161.12135 -1619.1271 -541.99427 2161.12135 -1619.1271 423384.568 -153622.62 -269761.95        0.0
                          0.0        0.0 -525.28491 2091.77015 -1566.4852  423383.18 -153618.26 -269764.92 -2617.0551  3658.2554
                   -1041.2003 -2703.1156 3780.24842 -1077.1328 577007.188 116139.327 -693146.52  .40582353 -.04291167 -.36291186
                   -.60331E-6 .223987E-5 -.16366E-5        0.0   134.9084   1.283171   1.103074   11.55868   9.936383    .111014
                         400.    .046189    .019088    .261571    .434247   1.259751    .016886    .008669   2149.611   42.99222
                          1.0        0.0        1.0        0.0        0.0
  21000      .021  -876.74456 2231.79855  -1355.054 -876.74456 2231.79855  -1355.054 407682.589 -89128.024 -318554.57        0.0
                          0.0        0.0  -849.2222 2160.05556 -1310.8334 407680.557 -89123.572 -318556.98 -3009.2778 3470.88891
                   -461.61115 -3108.5431 3586.85253 -478.30942 496810.613 229426.542 -726237.15 .371924297  .02704747 -.39897177
                   -.87857E-6 .217606E-5 -.15253E-5        0.0   134.9084   1.283171   1.103074   11.55868   9.936383    .111014
[...]
                         400.    .046189    .019088    .261571    .434247   1.259751    .016886    .008669   2149.611   42.99222
                          1.0        0.0        1.0        0.0        0.0
 113000      .113  -248112.49 -165939.78 414052.275 -248112.49 -165939.78 414052.275 -248112.49 -165939.78 414052.275        0.0
                          0.0        0.0 -168944.29  -166938.7 335882.992 -251960.44 -174352.02 426312.457 -2005.5964 -502821.69
                   504827.286 -82172.712 -579992.06 662164.768 -82172.713 -579992.06 662164.768 -160.48268  37.521321 122.961356
                   -.24621E-3 -.16944E-3 .473797E-3        0.0   134.9084   1.283171   1.103074   11.55868   9.936383    .111014
                         400.    .046189    .019088    .261571    .434247   1.259751    .016886    .008669   2149.611   42.99222
                          1.0        0.0        1.0        0.0        0.0
 113500     .1135  -181242.84 -230849.22 412092.058 -181242.84 -230849.22 412092.058 -181242.84 -230849.22 412092.058        0.0
                          0.0        0.0 -155780.74 -230372.09 386152.825 -194607.89 -233465.35  428073.24 74591.3486 -616524.91
                   541933.564 49606.3763 -642941.27 593334.898 49606.3755 -642941.28   593334.9 -356.46107 34.0541568 322.406911
                   -.19433E-3 -.23051E-3 .395715E-3        0.0   134.9084   1.283171   1.103074   11.55868   9.936383    .111014
                         400.    .046189    .019088    .261571    .434247   1.259751    .016886    .008669   2149.611   42.99222
                          1.0        0.0        1.0        0.0        0.0
 114000      .114  -141049.01 -292287.94 433336.945 -141049.01 -292287.94 433336.945 -141049.01 -292287.94 433336.946        0.0
                          0.0        0.0 -124021.31 -285505.47 409526.778 -132463.44   -286830.  419293.44 161484.155 -695032.24
                   533548.089 151238.925 -725624.88 574385.956 151238.924 -725624.88 574385.957 -294.00747 20.8831011 273.124373
                   -.15295E-3 -.28321E-3 .436157E-3        0.0   134.9084   1.283171   1.103074   11.55868   9.936383    .111014
                         400.    .046189    .019088    .261571    .434247   1.259751    .016886    .008669   2149.611   42.99222
                          1.0        0.0        1.0        0.0        0.0
 114500     .1145  -62962.204 -340773.26  403735.46 -62962.204 -340773.26  403735.46 -62962.205 -340773.26 403735.461        0.0
                          0.0        0.0 -128028.98 -313807.69 441836.674 -67057.308 -333131.94 400189.244 185778.706 -755644.36
                   569865.659 277811.052 -744508.72 466697.665 277811.051 -744508.72 466697.665 -170.22736 .065448222 170.161911
                   -.64468E-4 -.37709E-3 .405252E-3        0.0   134.9084   1.283171   1.103074   11.55868   9.936383    .111014
                         400.    .046189    .019088    .261571    .434247   1.259751    .016886    .008669   2149.611   42.99222
                          1.0        0.0        1.0        0.0        0.0
 115000      .115  -22712.083 -373192.47 395904.555 -22712.083 -373192.47 395904.555 -22712.083 -373192.47 395904.555        0.0
                          0.0        0.0 -30159.874 -366284.29 396444.159 .127058E-4 -371231.06  371231.06 336124.411 -762728.44
                   426604.033 350480.388 -769097.03 418616.638 350480.388 -769097.03 418616.638 44.8559493 -23.451436 -21.404513
                    -.2403E-4 -.38448E-3 .415862E-3        0.0   134.9084   1.283171   1.103074   11.55868   9.936383    .111014
                         400.    .046189    .019088    .261571    .434247   1.259751    .016886    .008669   2149.611   42.99222
                          1.0        0.0        1.0        0.0        0.0
 115500     .1155  70711.5757 -393027.11 322315.534 70711.5757 -393027.11 322315.534 70711.5757 -393027.11 322315.534        0.0
                          0.0        0.0 82601.1254 -395485.91  312884.78 67057.3081 -400189.24 333131.936 478087.031 -708370.69
                   230283.655 463738.685 -715342.64 251603.958 463738.685 -715342.64 251603.958 -35.017282 -29.008675  64.025957
                   .727923E-4 -.38756E-3 .358433E-3        0.0   134.9084   1.283171   1.103074   11.55868   9.936383    .111014
                         400.    .046189    .019088    .261571    .434247   1.259751    .016886    .008669   2149.611   42.99222
                          1.0        0.0        1.0        0.0        0.0
 116000      .116  123186.163 -412648.34  289462.18 123186.163 -412648.34  289462.18 123186.163 -412648.34  289462.18        0.0
                          0.0        0.0 192779.172 -408468.66 215689.484 132463.443 -419293.44 286829.997 601247.829 -624158.14
                   22910.3114 535834.507 -702110.52 166276.017 535834.506 -702110.52 166276.017 -147.31013 -19.576903 166.887036
                   .121518E-3 -.45273E-3 .316679E-3        0.0   134.9084   1.283171   1.103074   11.55868   9.936383    .111014
                         400.    .046189    .019088    .261571    .434247   1.259751    .016886    .008669   2149.611   42.99222
                          1.0        0.0        1.0        0.0        0.0
 116500     .1165  205481.338 -427074.26 221592.918 205481.338 -427074.26 221592.918 205481.337 -427074.26 221592.919        0.0
                          0.0        0.0  201337.43 -407317.44 205980.012 194607.888 -428073.24 233465.353 608654.871 -613297.45
                   4642.58215 632555.594 -648667.17 16111.5803 632555.593 -648667.17 16111.5819 -369.62694 -33.633154 403.260097
                   .233467E-3 -.47102E-3 .237525E-3        0.0   134.9084   1.283171   1.103074   11.55868   9.936383    .111014
                         400.    .046189    .019088    .261571    .434247   1.259751    .016886    .008669   2149.611   42.99222
                          1.0        0.0        1.0        0.0        0.0
 117000      .117  254803.966 -418138.46 163334.495 254803.966 -418138.46 163334.495 254803.965 -418138.46 163334.496        0.0
                          0.0        0.0 234255.289 -409078.06  174822.77 251960.441 -426312.46 174352.016 643333.348 -583900.83
                   -59432.519 672942.427 -581472.96  -91469.47 672942.426 -581472.96 -91469.469  -278.2516 -45.471458 323.723061
                   .265275E-3 -.43742E-3 .172198E-3        0.0   134.9084   1.283171   1.103074   11.55868   9.936383    .111014
                         400.    .046189    .019088    .261571    .434247   1.259751    .016886    .008669   2149.611   42.99222
                          1.0        0.0        1.0        0.0        0.0
 117500     .1175  299465.823 -409792.77  110326.95 299465.823 -409792.77  110326.95 299465.823 -409792.77 110326.951        0.0
                          0.0        0.0 236281.301 -406627.73 170346.433 303108.891 -414054.45 110945.554 642909.035 -576974.17
                   -65934.869 709258.597 -520119.72 -189138.87 709258.597 -520119.72 -189138.87 -162.21065 -61.989801 224.200455
                   .326183E-3 -.40666E-3 .109635E-3        0.0   134.9084   1.283171   1.103074   11.55868   9.936383    .111014
                         400.    .046189    .019088    .261571    .434247   1.259751    .016886    .008669   2149.611   42.99222
                          1.0        0.0        1.0        0.0        0.0
 118000      .118  337421.708 -392729.75 55308.0467 337421.708 -392729.75 55308.0467 337421.709 -392729.76 55308.0467        0.0
                          0.0        0.0 329957.672 -378817.63 48859.9555 346793.795 -391601.04 44807.2447 708775.299 -427677.58
                   -281097.72 730151.463  -448037.8 -282113.66 730151.464  -448037.8 -282113.66 94.1870014 -100.21051 6.02350583
                   .352117E-3 -.39735E-3  .59776E-4        0.0   134.9084   1.283171   1.103074   11.55868   9.936383    .111014
                         400.    .046189    .019088    .261571    .434247   1.259751    .016886    .008669   2149.611   42.99222
                          1.0        0.0        1.0        0.0        0.0
 118500     .1185  388085.042 -361327.19 -26757.853 388085.042 -361327.19 -26757.853 388085.042 -361327.19 -26757.852        0.0
                          0.0        0.0 385176.905 -354647.98 -30528.926 381939.485 -359505.12 -22434.368 739824.883 -324119.05
                   -415705.83 749412.231 -334569.34 -414842.89 749412.232 -334569.34 -414842.89 37.7643068 -101.68493 63.9206194
                   .412661E-3 -.35242E-3 -.27506E-4        0.0   134.9084   1.283171   1.103074   11.55868   9.936383    .111014
                         400.    .046189    .019088    .261571    .434247   1.259751    .016886    .008669   2149.611   42.99222
                          1.0        0.0        1.0        0.0        0.0
 119000      .119  408564.394 -316005.73 -92558.661 408564.394 -316005.73 -92558.661 408564.394 -316005.73 -92558.661        0.0
                          0.0        0.0   443217.6 -314587.97 -128629.63 407680.557 -318556.98 -89123.572 757805.568 -185958.34
                   -571847.23 724570.126 -223447.07 -501123.05 724570.126 -223447.07 -501123.05 -88.177265 -98.890441 187.067706
                    .43118E-3 -.30807E-3 -.94034E-4        0.0   134.9084   1.283171   1.103074   11.55868   9.936383    .111014
                         400.    .046189    .019088    .261571    .434247   1.259751    .016886    .008669   2149.611   42.99222
                          1.0        0.0        1.0        0.0        0.0
 119500     .1195  427110.356 -256731.15 -170379.21 427110.356 -256731.15 -170379.21 427110.356 -256731.15  -170379.2        0.0
                          0.0        0.0 408408.556 -255485.99 -152922.57  423383.18 -269764.92 -153618.26 663894.543 -102563.42
                   -561331.12 683841.507 -86351.946 -597489.56 683841.507 -86351.947 -597489.56 -302.72999 -93.850031 396.580023
                   .478583E-3  -.2551E-3 -.16531E-3        0.0   134.9084   1.283171   1.103074   11.55868   9.936383    .111014
                         400.    .046189    .019088    .261571    .434247   1.259751    .016886    .008669   2149.611   42.99222
                          1.0        0.0        1.0        0.0        0.0
  % % % % % %   Suspended simulation;  plot data space exhausted;  SPY SPACE is required.   LIMBUF =  840000.
  % % % % % %   Suspended simulation;  plot data space exhausted;  SPY SPACE is required.   LIMBUF =  840000.
  +++  Time-sharing disabled.   Send  user-keyed interrupt to silence alarm.
   Current values.  INDBUF  INDBEG  LIMBUF  MFLUSH  NUMDCD  KCARD1  KCARD2
                    839994      50  840000    1007     230       1     231
Plot timespan now in memory (in sec) = 1.04985997E-01   1.19985000E-01
   ++++  Begin plot-data copy from memory to disk.   MFLUSH, INDBUF, N4, Tbeg,  Tend = 1008  839994       1  -1.00000E+00
1.00000E+19
 120000       .12  421493.719 -221942.71 -199551.01 421493.719 -221942.71 -199551.01 421493.719 -221942.71 -199551.01        0.0
                          0.0        0.0 396353.794  -215354.4 -180999.39 428660.705 -214330.35 -214330.35 611708.195 -34355.008
                   -577353.19 643436.425 -22391.693 -621044.73 643436.425 -22391.694 -621044.73 -224.10866  -101.7162 325.824855
                   .410791E-3  -.2248E-3  -.2151E-3        0.0   134.9084   1.283171   1.103074   11.55868   9.936383    .111014
                         400.    .046189    .019088    .261571    .434247   1.259751    .016886    .008669   2149.611   42.99222
                          1.0        0.0        1.0        0.0        0.0

Extrema of output variables follow.   Order and column positioning are the same as for the preceding time-step loop output.
Variable maxima :  464794.388 447311.743 464878.733 464794.388 447311.743 464878.733 464794.387  542705.74 464878.734        0.0
                          0.0        0.0 518065.404 452481.259 508097.703 428660.705 428660.703 428660.703 827396.224 832116.184
                   893621.177 788741.364 773142.516 798306.913 788741.363 773142.516 798306.913 299.325718 623.760473 554.913494
                   .527664E-3 .504408E-3 .524104E-3        0.0   134.9084   1.283171   1.103074   11.55868   9.936383    .111014
                         400.    .046189    .019088    .261571    .434247   1.259751    .016886    .008669   2149.611   42.99222
                          1.0        0.0        1.0        0.0        0.0
Times of maxima :     .059614    .067118    .093844    .059614    .067118    .093844    .059614    .047539    .093844        0.0
                          0.0        0.0    .080161    .048199    .072675        0.0    .006667    .113333    .098177    .065318
                      .072671    .077669    .064679    .111928    .077669    .064679    .111928    .064643     .04673    .057851
                      .059574    .067127    .093862        0.0        0.0        0.0        0.0        0.0        0.0        0.0
                          0.0        0.0        0.0        0.0        0.0        0.0        0.0        0.0        0.0        0.0
                          0.0        0.0        0.0        0.0        0.0
Variable minima :  -465814.97 -462576.66 -467024.55 -465814.97 -462576.66 -467024.55 -465814.97 -462576.66 -467024.55        0.0
                          0.0        0.0 -520423.31 -445224.72 -506497.92 -428660.71  -428660.7  -428660.7 -824882.75 -836247.08
                   -899645.74 -805963.69 -803557.12 -792378.51  -893041.2 -803557.12 -792378.51 -524.93258 -168.69865 -362.98555
                   -.52608E-3  -.5191E-3 -.52571E-3        0.0   134.9084   1.283171   1.103074   11.55868   9.936383    .111014
                         400.    .046189    .019088    .261571    .434247   1.259751    .016886    .008669   2149.611   42.99222
                          1.0        0.0        1.0        0.0        0.0
Times of minima :     .069858    .056674    .083579    .069858    .056674    .083579    .069858    .056674    .083579        0.0
                          0.0        0.0     .06973    .056026    .083051        .01    .016667    .103333    .108355    .054731
                      .062491    .088013    .055377    .061848    .047541    .055377    .061848    .074909    .061958    .046373
                      .070289    .056673    .083597        0.0        0.0        0.0        0.0        0.0        0.0        0.0
                          0.0        0.0        0.0        0.0        0.0        0.0        0.0        0.0        0.0        0.0
                          0.0        0.0        0.0        0.0        0.0

Blank card terminating all plot cards.            |BLANK PLOT

Memory storage figures for the preceding, now-completed data case.  -------------------------------  Present   Program
A value of  "-9999"  indicates that no figure is available.         28-Feb-22  20:02:01              figure     limit  (name)
     Size List 1.   Number of electric network nodes.                                                   37      6000  (LBUS)
     Size List 2.   Number of electric network branches.                                                39     10000  (LBRNCH)
     Size List 3.   Number of data values in R, L, C tables.                                            45    192000  (LDATA)
     Size List 4.   Number of electric network sources.                                                  3       900  (LEXCT)
     Size List 5.   Storage for [Y] and triangularized [Y].   No. times =    3     Factors =    66     189    420000  (LYMAT)
     Size List 6.   Number of entries in switch table.                  No. flops = 18                  21      1200  (LSWTCH)
     Size List 7.   Number of distinct ALPHANUMERIC data names plus program SPY variables.              25     15000  (LSIZE7)
     Size List 8.   History points of distributed lines.                                              2103    120000  (LPAST)
     Size List 9.   Number of nonlinear elements.                                                        0      2250  (LNONL)
     Size List 10.  Points of nonlinear characteristics.                                                 0      3800  (LCHAR)
     Size List 11.  Number of Type-59 S.M. outputs.                                                      0       720  (LSMOUT)
     Size List 12.  Total number of EMTP output variables.                                              55      2000  (LSIZ12)
     Size List 13.  Working space for batch/SPY plotting.                                            -9999     72800  (LSIZ13)
     Size List 14.  S.M./U.M. connections to TACS.                                                   -9999       510  (LBSTAC)
     Size List 15.  Character storage in bytes for MODELS.                                            3298     90000  (LCTACS)
     Size List 16.  Total number of Type-59 S.M. masses.                                                 0       800  (LIMASS)
     Size List 17.  Number of Type-59 Synchronous machines.                                              0        90  (LSYN)
     Size List 18.  Branch and switch power/energy outputs.                                              0       254  (MAXPE)
     Size List 19.  Total floating-point TACS table space.                                              23    120000  (LTACST)
     Size List 20.  Non-copied recursive convolution data.                                               0    100000  (LFSEM)
     Size List 21.  Total modal/phase [T] matrix storage.                                                9      3000  (LFD)
     Size List 22.  Total recursive convolution history.                                                 0     15000  (LHIST)
     Size List 23.  Giant vectors for renumbering, phasors;  also extrema accumulation.                  93    192000  (LSIZ23)
     Size List 24.  Peak phases of compensation for data.                                                0       120  (LCOMP)
     Size List 25.  Total table space for all U.M usage.                                             -9999     45000  (LSPCUM)
     Size List 26.  Square of max number of coupled phases.                                              9    260000  (LSIZ26)
     Size List 27.  Maximum number of MODELS top variables.                                             44       600  (LSIZ27)
     Size List 28.  MODELS.  Total work space is divided into INTEGER and REAL.  1st, REAL:           1780    210000  (LRTACS)
                             Second  and last,  statistics for INTEGER work space.                    6838         0  (LITACS)
     Size List 29.  RAM disk used by "TAPSAV" table saving (limit is "LABCOM" size LTLABL).          -9999       600  (LSIZ29)
     Size List 30.  Taku Noda frequency-dependent circuits.                                              0        19  (LSIZ30)
Timing figures characterizing central processor (CP) solution speed.  ----------------------------   CP sec  Wait sec  Real sec
     Data input time (through blank card ending branches) ....                                       0.016     0.000     0.016
     Node renumbering and phasor solution  ....                                                      0.016     0.000     0.016
     After phasor solution, but before time-step loop  ....                                          0.000     0.000     0.000
     Integration of equations (time-step loop)  ....                                                 0.922     0.000     0.922
     Plotting or STATISTICS termination overlays ....                                                0.000     0.000     0.000
                                                                                                    ---------------------------
                                                                                          Totals      0.953     0.000     0.953

